

        *** GPGPU-Sim Simulator Version 3.2.2  [build 0] ***


GPGPU-Sim PTX: simulation mode 0 (can change with PTX_SIM_MODE_FUNC environment variable:
               1=functional simulation only, 0=detailed performance simulator)
GPGPU-Sim: Configuration options:

-network_mode                           1 # Interconnection network mode
-inter_config_file   config_fermi_islip.icnt # Interconnection network config file
-gpgpu_ptx_use_cuobjdump                    1 # Use cuobjdump to extract ptx and sass from binaries
-gpgpu_experimental_lib_support                    0 # Try to extract code from cuda libraries [Broken because of unknown cudaGetExportTable]
-gpgpu_ptx_convert_to_ptxplus                    0 # Convert SASS (native ISA) to ptxplus and run ptxplus
-gpgpu_ptx_force_max_capability                   20 # Force maximum compute capability
-gpgpu_ptx_inst_debug_to_file                    0 # Dump executed instructions' debug information to file
-gpgpu_ptx_inst_debug_file       inst_debug.txt # Executed instructions' debug output file
-gpgpu_ptx_inst_debug_thread_uid                    1 # Thread UID for executed instructions' debug output
-gpgpu_simd_model                       1 # 1 = post-dominator
-gpgpu_shader_core_pipeline              1536:32 # shader core pipeline config, i.e., {<nthread>:<warpsize>}
-gpgpu_tex_cache:l1  4:128:24,L:R:m:N:L,F:128:4,128:2 # per-shader L1 texture cache  (READ-ONLY) config  {<nsets>:<bsize>:<assoc>,<rep>:<wr>:<alloc>:<wr_alloc>,<mshr>:<N>:<merge>,<mq>:<rf>}
-gpgpu_const_cache:l1 64:64:2,L:R:f:N:L,A:2:32,4 # per-shader L1 constant memory cache  (READ-ONLY) config  {<nsets>:<bsize>:<assoc>,<rep>:<wr>:<alloc>:<wr_alloc>,<mshr>:<N>:<merge>,<mq>} 
-gpgpu_cache:il1     4:128:4,L:R:f:N:L,A:2:32,4 # shader L1 instruction cache config  {<nsets>:<bsize>:<assoc>,<rep>:<wr>:<alloc>:<wr_alloc>,<mshr>:<N>:<merge>,<mq>} 
-gpgpu_cache:dl1     32:128:4,L:L:m:N:H,A:32:8,8 # per-shader L1 data cache config  {<nsets>:<bsize>:<assoc>,<rep>:<wr>:<alloc>:<wr_alloc>,<mshr>:<N>:<merge>,<mq> | none}
-gpgpu_cache:dl1PrefL1                 none # per-shader L1 data cache config  {<nsets>:<bsize>:<assoc>,<rep>:<wr>:<alloc>:<wr_alloc>,<mshr>:<N>:<merge>,<mq> | none}
-gpgpu_cache:dl1PreShared                 none # per-shader L1 data cache config  {<nsets>:<bsize>:<assoc>,<rep>:<wr>:<alloc>:<wr_alloc>,<mshr>:<N>:<merge>,<mq> | none}
-gmem_skip_L1D                          0 # global memory access skip L1D cache (implements -Xptxas -dlcm=cg, default=no skip)
-gpgpu_perfect_mem                      0 # enable perfect memory mode (no cache miss)
-n_regfile_gating_group                    4 # group of lanes that should be read/written together)
-gpgpu_clock_gated_reg_file                    0 # enable clock gated reg file for power calculations
-gpgpu_clock_gated_lanes                    0 # enable clock gated lanes for power calculations
-gpgpu_shader_registers                32768 # Number of registers per shader core. Limits number of concurrent CTAs. (default 8192)
-gpgpu_shader_cta                       8 # Maximum number of concurrent CTAs in shader (default 8)
-gpgpu_num_cta_barriers                   16 # Maximum number of named barriers per CTA (default 16)
-gpgpu_n_clusters                      15 # number of processing clusters
-gpgpu_n_cores_per_cluster                    1 # number of simd cores per cluster
-gpgpu_n_cluster_ejection_buffer_size                    8 # number of packets in ejection buffer
-gpgpu_n_ldst_response_buffer_size                    2 # number of response packets in ld/st unit ejection buffer
-gpgpu_shmem_size                   16384 # Size of shared memory per shader core (default 16kB)
-gpgpu_shmem_size                   49152 # Size of shared memory per shader core (default 16kB)
-gpgpu_shmem_size_PrefL1                16384 # Size of shared memory per shader core (default 16kB)
-gpgpu_shmem_size_PrefShared                16384 # Size of shared memory per shader core (default 16kB)
-gpgpu_shmem_num_banks                   32 # Number of banks in the shared memory in each shader core (default 16)
-gpgpu_shmem_limited_broadcast                    0 # Limit shared memory to do one broadcast per cycle (default on)
-gpgpu_shmem_warp_parts                    1 # Number of portions a warp is divided into for shared memory bank conflict check 
-gpgpu_warpdistro_shader                   -1 # Specify which shader core to collect the warp size distribution from
-gpgpu_warp_issue_shader                    0 # Specify which shader core to collect the warp issue distribution from
-gpgpu_local_mem_map                    1 # Mapping from local memory space address to simulated GPU physical address space (default = enabled)
-gpgpu_num_reg_banks                   16 # Number of register banks (default = 8)
-gpgpu_reg_bank_use_warp_id                    0 # Use warp ID in mapping registers to banks (default = off)
-gpgpu_operand_collector_num_units_sp                    6 # number of collector units (default = 4)
-gpgpu_operand_collector_num_units_sfu                    8 # number of collector units (default = 4)
-gpgpu_operand_collector_num_units_mem                    2 # number of collector units (default = 2)
-gpgpu_operand_collector_num_units_gen                    0 # number of collector units (default = 0)
-gpgpu_operand_collector_num_in_ports_sp                    2 # number of collector unit in ports (default = 1)
-gpgpu_operand_collector_num_in_ports_sfu                    1 # number of collector unit in ports (default = 1)
-gpgpu_operand_collector_num_in_ports_mem                    1 # number of collector unit in ports (default = 1)
-gpgpu_operand_collector_num_in_ports_gen                    0 # number of collector unit in ports (default = 0)
-gpgpu_operand_collector_num_out_ports_sp                    2 # number of collector unit in ports (default = 1)
-gpgpu_operand_collector_num_out_ports_sfu                    1 # number of collector unit in ports (default = 1)
-gpgpu_operand_collector_num_out_ports_mem                    1 # number of collector unit in ports (default = 1)
-gpgpu_operand_collector_num_out_ports_gen                    0 # number of collector unit in ports (default = 0)
-gpgpu_coalesce_arch                   13 # Coalescing arch (default = 13, anything else is off for now)
-gpgpu_num_sched_per_core                    2 # Number of warp schedulers per core
-gpgpu_max_insn_issue_per_warp                    1 # Max number of instructions that can be issued per warp in one cycle by scheduler
-gpgpu_simt_core_sim_order                    1 # Select the simulation order of cores in a cluster (0=Fix, 1=Round-Robin)
-gpgpu_pipeline_widths        2,1,1,2,1,1,2 # Pipeline widths ID_OC_SP,ID_OC_SFU,ID_OC_MEM,OC_EX_SP,OC_EX_SFU,OC_EX_MEM,EX_WB
-gpgpu_num_sp_units                     2 # Number of SP units (default=1)
-gpgpu_num_sfu_units                    1 # Number of SF units (default=1)
-gpgpu_num_mem_units                    1 # Number if ldst units (default=1) WARNING: not hooked up to anything
-gpgpu_scheduler                      gto # Scheduler configuration: < lrr | gto | two_level_active > If two_level_active:<num_active_warps>:<inner_prioritization>:<outer_prioritization>For complete list of prioritization values see shader.h enum scheduler_prioritization_typeDefault: gto
-gpgpu_dram_scheduler                    1 # 0 = fifo, 1 = FR-FCFS (defaul)
-gpgpu_dram_partition_queues              8:8:8:8 # i2$:$2d:d2$:$2i
-l2_ideal                               0 # Use a ideal L2 cache that always hit
-gpgpu_cache:dl2     64:128:8,L:B:m:W:L,A:32:4,4:0,32 # unified banked L2 data cache config  {<nsets>:<bsize>:<assoc>,<rep>:<wr>:<alloc>:<wr_alloc>,<mshr>:<N>:<merge>,<mq>}
-gpgpu_cache:dl2_texture_only                    0 # L2 cache used for texture only
-gpgpu_n_mem                            6 # number of memory modules (e.g. memory controllers) in gpu
-gpgpu_n_sub_partition_per_mchannel                    2 # number of memory subpartition in each memory module
-gpgpu_n_mem_per_ctrlr                    2 # number of memory chips per memory controller
-gpgpu_memlatency_stat                   14 # track and display latency statistics 0x2 enables MC, 0x4 enables queue logs
-gpgpu_frfcfs_dram_sched_queue_size                   16 # 0 = unlimited (default); # entries per chip
-gpgpu_dram_return_queue_size                  116 # 0 = unlimited (default); # entries per chip
-gpgpu_dram_buswidth                    4 # default = 4 bytes (8 bytes per cycle at DDR)
-gpgpu_dram_burst_length                    8 # Burst length of each DRAM request (default = 4 data bus cycle)
-dram_data_command_freq_ratio                    4 # Frequency ratio between DRAM data bus and command bus (default = 2 times, i.e. DDR)
-gpgpu_dram_timing_opt nbk=16:CCD=2:RRD=6:RCD=12:RAS=28:RP=12:RC=40: CL=12:WL=4:CDLR=5:WR=12:nbkgrp=4:CCDL=3:RTPL=2 # DRAM timing parameters = {nbk:tCCD:tRRD:tRCD:tRAS:tRP:tRC:CL:WL:tCDLR:tWR:nbkgrp:tCCDL:tRTPL}
-rop_latency                          120 # ROP queue latency (default 85)
-dram_latency                         100 # DRAM latency (default 30)
-gpgpu_mem_addr_mapping dramid@8;00000000.00000000.00000000.00000000.0000RRRR.RRRRRRRR.BBBCCCCB.CCSSSSSS # mapping memory address to dram model {dramid@<start bit>;<memory address map>}
-gpgpu_mem_addr_test                    0 # run sweep test to check address mapping for aliased address
-gpgpu_mem_address_mask                    1 # 0 = old addressing mask, 1 = new addressing mask, 2 = new add. mask + flipped bank sel and chip sel bits
-gpuwattch_xml_file  gpuwattch_gtx480.xml # GPUWattch XML file
-power_simulation_enabled                    1 # Turn on power simulator (1=On, 0=Off)
-power_per_cycle_dump                    0 # Dump detailed power output each cycle
-power_trace_enabled                    0 # produce a file for the power trace (1=On, 0=Off)
-power_trace_zlevel                     6 # Compression level of the power trace output log (0=no comp, 9=highest)
-steady_power_levels_enabled                    0 # produce a file for the steady power levels (1=On, 0=Off)
-steady_state_definition                  8:4 # allowed deviation:number of samples
-gpgpu_max_cycle                        0 # terminates gpu simulation early (0 = no limit)
-gpgpu_max_insn                         0 # terminates gpu simulation early (0 = no limit)
-gpgpu_max_cta                          0 # terminates gpu simulation early (0 = no limit)
-gpgpu_runtime_stat                   500 # display runtime statistics such as dram utilization {<freq>:<flag>}
-liveness_message_freq                    1 # Minimum number of seconds between simulation liveness messages (0 = always print)
-gpgpu_flush_l1_cache                    0 # Flush L1 cache at the end of each kernel call
-gpgpu_flush_l2_cache                    0 # Flush L2 cache at the end of each kernel call
-gpgpu_deadlock_detect                    1 # Stop the simulation at deadlock (1=on (default), 0=off)
-gpgpu_ptx_instruction_classification                    0 # if enabled will classify ptx instruction types per kernel (Max 255 kernels now)
-gpgpu_ptx_sim_mode                     0 # Select between Performance (default) or Functional simulation (1)
-gpgpu_clock_domains 700.0:700.0:700.0:924.0 # Clock Domain Frequencies in MhZ {<Core Clock>:<ICNT Clock>:<L2 Clock>:<DRAM Clock>}
-gpgpu_max_concurrent_kernel                    8 # maximum kernels that can run concurrently on GPU
-gpgpu_cflog_interval                    0 # Interval between each snapshot in control flow logger
-visualizer_enabled                     0 # Turn on visualizer output (1=On, 0=Off)
-visualizer_outputfile                 NULL # Specifies the output log file for visualizer
-visualizer_zlevel                      6 # Compression level of the visualizer output log (0=no comp, 9=highest)
-trace_enabled                          0 # Turn on traces
-trace_components                    none # comma seperated list of traces to enable. Complete list found in trace_streams.tup. Default none
-trace_sampling_core                    0 # The core which is printed using CORE_DPRINTF. Default 0
-trace_sampling_memory_partition                   -1 # The memory partition which is printed using MEMPART_DPRINTF. Default -1 (i.e. all)
-enable_ptx_file_line_stats                    1 # Turn on PTX source line statistic profiling. (1 = On)
-ptx_line_stats_filename gpgpu_inst_stats.txt # Output file for PTX source line statistics.
-save_embedded_ptx                      0 # saves ptx files embedded in binary as <n>.ptx
-keep                                   0 # keep intermediate files created by GPGPU-Sim when interfacing with external programs
-gpgpu_ptx_save_converted_ptxplus                    0 # Saved converted ptxplus to a file
-ptx_opcode_latency_int         4,13,4,5,145 # Opcode latencies for integers <ADD,MAX,MUL,MAD,DIV>Default 1,1,19,25,145
-ptx_opcode_latency_fp          4,13,4,5,39 # Opcode latencies for single precision floating points <ADD,MAX,MUL,MAD,DIV>Default 1,1,1,1,30
-ptx_opcode_latency_dp         8,19,8,8,330 # Opcode latencies for double precision floating points <ADD,MAX,MUL,MAD,DIV>Default 8,8,8,8,335
-ptx_opcode_initiation_int            1,2,2,1,8 # Opcode initiation intervals for integers <ADD,MAX,MUL,MAD,DIV>Default 1,1,4,4,32
-ptx_opcode_initiation_fp            1,2,1,1,4 # Opcode initiation intervals for single precision floating points <ADD,MAX,MUL,MAD,DIV>Default 1,1,1,1,5
-ptx_opcode_initiation_dp         8,16,8,8,130 # Opcode initiation intervals for double precision floating points <ADD,MAX,MUL,MAD,DIV>Default 8,8,8,8,130
DRAM Timing Options:
nbk                                    16 # number of banks
CCD                                     2 # column to column delay
RRD                                     6 # minimal delay between activation of rows in different banks
RCD                                    12 # row to column delay
RAS                                    28 # time needed to activate row
RP                                     12 # time needed to precharge (deactivate) row
RC                                     40 # row cycle time
CDLR                                    5 # switching from write to read (changes tWTR)
WR                                     12 # last data-in to row precharge
CL                                     12 # CAS latency
WL                                      4 # Write latency
nbkgrp                                  4 # number of bank groups
CCDL                                    3 # column to column delay between accesses to different bank groups
RTPL                                    2 # read to precharge delay between accesses to different bank groups
Total number of memory sub partition = 12
addr_dec_mask[CHIP]  = 0000000000000000 	high:64 low:0
addr_dec_mask[BK]    = 000000000000e100 	high:16 low:8
addr_dec_mask[ROW]   = 000000000fff0000 	high:28 low:16
addr_dec_mask[COL]   = 0000000000001eff 	high:13 low:0
addr_dec_mask[BURST] = 000000000000003f 	high:6 low:0
sub_partition_id_mask = 0000000000000100
GPGPU-Sim uArch: clock freqs: 700000000.000000:700000000.000000:700000000.000000:924000000.000000
GPGPU-Sim uArch: clock periods: 0.00000000142857142857:0.00000000142857142857:0.00000000142857142857:0.00000000108225108225
*** Initializing Memory Statistics ***
GPGPU-Sim uArch: interconnect node map (shaderID+MemID to icntID)
GPGPU-Sim uArch: Memory nodes ID start from index: 15
GPGPU-Sim uArch:    0   1   2   3   4
GPGPU-Sim uArch:    5   6   7   8   9
GPGPU-Sim uArch:   10  11  12  13  14
GPGPU-Sim uArch:   15  16  17  18  19
GPGPU-Sim uArch:   20  21  22  23  24
GPGPU-Sim uArch:   25  26
GPGPU-Sim uArch: interconnect node reverse map (icntID to shaderID+MemID)
GPGPU-Sim uArch: Memory nodes start from ID: 15
GPGPU-Sim uArch:    0   1   2   3   4
GPGPU-Sim uArch:    5   6   7   8   9
GPGPU-Sim uArch:   10  11  12  13  14
GPGPU-Sim uArch:   15  16  17  18  19
GPGPU-Sim uArch:   20  21  22  23  24
GPGPU-Sim uArch:   25  26
131ddb1eeb20fc5c217a515961561909  /home/ece786/NVIDIA_GPU_Computing_SDK/C/bin/linux/release/matrix
GPGPU-Sim uArch: performance model initialization complete.
GPGPU-Sim PTX: FatBin file name extraction has not been tested on 32-bit system.
GPGPU-Sim PTX: __cudaRegisterFatBinary, fat_cubin_handle = 1, filename=matrix.cu
self exe links to: /home/ece786/NVIDIA_GPU_Computing_SDK/C/bin/linux/release/matrix
Running md5sum using "md5sum /home/ece786/NVIDIA_GPU_Computing_SDK/C/bin/linux/release/matrix "
Running cuobjdump using "$CUDA_INSTALL_PATH/bin/cuobjdump -ptx -elf -sass /home/ece786/NVIDIA_GPU_Computing_SDK/C/bin/linux/release/matrix > _cuobjdump_complete_output_6hetuF"
Parsing file _cuobjdump_complete_output_6hetuF
######### cuobjdump parser ########
## Adding new section PTX
Adding ptx filename: _cuobjdump_1.ptx
Adding arch: sm_10
Adding identifier: matrix.cu
## Adding new section ELF
Adding arch: sm_10
Adding identifier: matrix.cu
## Adding new section PTX
Adding ptx filename: _cuobjdump_2.ptx
Adding arch: sm_20
Adding identifier: matrix.cu
## Adding new section ELF
Adding arch: sm_20
Adding identifier: matrix.cu
Done parsing!!!
GPGPU-Sim PTX: __cudaRegisterFunction _Z10testKernelPfS_S_jjjj : hostFun 0x0x804b4c0, fat_cubin_handle = 1
GPGPU-Sim PTX: instruction assembly for function '_Z10testKernelPfS_S_jjjj'...   done.
GPGPU-Sim PTX: finding reconvergence points for '_Z10testKernelPfS_S_jjjj'...
GPGPU-Sim PTX: Finding dominators for '_Z10testKernelPfS_S_jjjj'...
GPGPU-Sim PTX: Finding immediate dominators for '_Z10testKernelPfS_S_jjjj'...
GPGPU-Sim PTX: Finding postdominators for '_Z10testKernelPfS_S_jjjj'...
GPGPU-Sim PTX: Finding immediate postdominators for '_Z10testKernelPfS_S_jjjj'...
GPGPU-Sim PTX: pre-decoding instructions for '_Z10testKernelPfS_S_jjjj'...
GPGPU-Sim PTX: reconvergence points for _Z10testKernelPfS_S_jjjj...
GPGPU-Sim PTX:  1 (potential) branch divergence @  PC=0x058 (_1.ptx:76) @%p1 bra $Lt_0_6914;
GPGPU-Sim PTX:    immediate post dominator      @  PC=0x1d8 (_1.ptx:136) ld.param.u32 %r35, [__cudaparm__Z10testKernelPfS_S_jjjj_d_matrixC];
GPGPU-Sim PTX:  2 (potential) branch divergence @  PC=0x0a0 (_1.ptx:87) @!%p2 bra $Lt_0_5634;
GPGPU-Sim PTX:    immediate post dominator      @  PC=0x1a8 (_1.ptx:127) add.s32 %r15, %r15, 1;
GPGPU-Sim PTX:  3 (potential) branch divergence @  PC=0x0d8 (_1.ptx:97) @!%p3 bra $Lt_0_7938;
GPGPU-Sim PTX:    immediate post dominator      @  PC=0x190 (_1.ptx:123) add.s32 %r20, %r20, 1;
GPGPU-Sim PTX:  4 (potential) branch divergence @  PC=0x0f0 (_1.ptx:100) @%p4 bra $Lt_0_7938;
GPGPU-Sim PTX:    immediate post dominator      @  PC=0x190 (_1.ptx:123) add.s32 %r20, %r20, 1;
GPGPU-Sim PTX:  5 (potential) branch divergence @  PC=0x110 (_1.ptx:104) @%p5 bra $Lt_0_7938;
GPGPU-Sim PTX:    immediate post dominator      @  PC=0x190 (_1.ptx:123) add.s32 %r20, %r20, 1;
GPGPU-Sim PTX:  6 (potential) branch divergence @  PC=0x120 (_1.ptx:106) @%p6 bra $Lt_0_7938;
GPGPU-Sim PTX:    immediate post dominator      @  PC=0x190 (_1.ptx:123) add.s32 %r20, %r20, 1;
GPGPU-Sim PTX:  7 (potential) branch divergence @  PC=0x1a0 (_1.ptx:125) @%p7 bra $Lt_0_6146;
GPGPU-Sim PTX:    immediate post dominator      @  PC=0x1a8 (_1.ptx:127) add.s32 %r15, %r15, 1;
GPGPU-Sim PTX:  8 (potential) branch divergence @  PC=0x1b8 (_1.ptx:129) @%p8 bra $Lt_0_5378;
GPGPU-Sim PTX:    immediate post dominator      @  PC=0x1c0 (_1.ptx:130) bra.uni $Lt_0_4866;
GPGPU-Sim PTX:  9 (potential) branch divergence @  PC=0x1c0 (_1.ptx:130) bra.uni $Lt_0_4866;
GPGPU-Sim PTX:    immediate post dominator      @  PC=0x1d8 (_1.ptx:136) ld.param.u32 %r35, [__cudaparm__Z10testKernelPfS_S_jjjj_d_matrixC];
GPGPU-Sim PTX: ... end of reconvergence points for _Z10testKernelPfS_S_jjjj
GPGPU-Sim PTX: ... done pre-decoding instructions for '_Z10testKernelPfS_S_jjjj'.
GPGPU-Sim PTX: finished parsing EMBEDDED .ptx file _1.ptx
Adding _cuobjdump_2.ptx with cubin handle 1
GPGPU-Sim PTX: extracting embedded .ptx to temporary file "_ptx_X3fNZF"
Running: cat _ptx_X3fNZF | sed 's/.version 1.5/.version 1.4/' | sed 's/, texmode_independent//' | sed 's/\(\.extern \.const\[1\] .b8 \w\+\)\[\]/\1\[1\]/' | sed 's/const\[.\]/const\[0\]/g' > _ptx2_Nek8uG
GPGPU-Sim PTX: generating ptxinfo using "$CUDA_INSTALL_PATH/bin/ptxas --gpu-name=sm_20 -v _ptx2_Nek8uG --output-file  /dev/null 2> _ptx_X3fNZFinfo"
GPGPU-Sim PTX: Kernel '_Z10testKernelPfS_S_jjjj' : regs=12, lmem=0, smem=0, cmem=60
GPGPU-Sim PTX: removing ptxinfo using "rm -f _ptx_X3fNZF _ptx2_Nek8uG _ptx_X3fNZFinfo"
GPGPU-Sim PTX: loading globals with explicit initializers... 
GPGPU-Sim PTX: finished loading globals (0 bytes total).
GPGPU-Sim PTX: loading constants with explicit initializers...  done.
initalize A
matrix A
matrix B
Start Timer

GPGPU-Sim PTX: cudaLaunch for 0x0x804b4c0 (mode=performance simulation) on stream 0
GPGPU-Sim PTX: pushing kernel '_Z10testKernelPfS_S_jjjj' to stream 0, gridDim= (16,16,1) blockDim = (16,16,1) 
kernel '_Z10testKernelPfS_S_jjjj' transfer to GPU hardware scheduler
GPGPU-Sim uArch: Shader 1 bind to kernel 1 '_Z10testKernelPfS_S_jjjj'
GPGPU-Sim uArch: CTA/core = 6, limited by: threads
GPGPU-Sim uArch: core:  1, cta: 0 initialized @(1,0)
GPGPU-Sim uArch: Shader 2 bind to kernel 1 '_Z10testKernelPfS_S_jjjj'
GPGPU-Sim uArch: core:  2, cta: 0 initialized @(1,0)
GPGPU-Sim uArch: Shader 3 bind to kernel 1 '_Z10testKernelPfS_S_jjjj'
GPGPU-Sim uArch: core:  3, cta: 0 initialized @(1,0)
GPGPU-Sim uArch: Shader 4 bind to kernel 1 '_Z10testKernelPfS_S_jjjj'
GPGPU-Sim uArch: core:  4, cta: 0 initialized @(1,0)
GPGPU-Sim uArch: Shader 5 bind to kernel 1 '_Z10testKernelPfS_S_jjjj'
GPGPU-Sim uArch: core:  5, cta: 0 initialized @(1,0)
GPGPU-Sim uArch: Shader 6 bind to kernel 1 '_Z10testKernelPfS_S_jjjj'
GPGPU-Sim uArch: core:  6, cta: 0 initialized @(1,0)
GPGPU-Sim uArch: Shader 7 bind to kernel 1 '_Z10testKernelPfS_S_jjjj'
GPGPU-Sim uArch: core:  7, cta: 0 initialized @(1,0)
GPGPU-Sim uArch: Shader 8 bind to kernel 1 '_Z10testKernelPfS_S_jjjj'
GPGPU-Sim uArch: core:  8, cta: 0 initialized @(1,0)
GPGPU-Sim uArch: Shader 9 bind to kernel 1 '_Z10testKernelPfS_S_jjjj'
GPGPU-Sim uArch: core:  9, cta: 0 initialized @(1,0)
GPGPU-Sim uArch: Shader 10 bind to kernel 1 '_Z10testKernelPfS_S_jjjj'
GPGPU-Sim uArch: core: 10, cta: 0 initialized @(1,0)
GPGPU-Sim uArch: Shader 11 bind to kernel 1 '_Z10testKernelPfS_S_jjjj'
GPGPU-Sim uArch: core: 11, cta: 0 initialized @(1,0)
GPGPU-Sim uArch: Shader 12 bind to kernel 1 '_Z10testKernelPfS_S_jjjj'
GPGPU-Sim uArch: core: 12, cta: 0 initialized @(1,0)
GPGPU-Sim uArch: Shader 13 bind to kernel 1 '_Z10testKernelPfS_S_jjjj'
GPGPU-Sim uArch: core: 13, cta: 0 initialized @(1,0)
GPGPU-Sim uArch: Shader 14 bind to kernel 1 '_Z10testKernelPfS_S_jjjj'
GPGPU-Sim uArch: core: 14, cta: 0 initialized @(1,0)
GPGPU-Sim uArch: Shader 0 bind to kernel 1 '_Z10testKernelPfS_S_jjjj'
GPGPU-Sim uArch: core:  0, cta: 0 initialized @(1,0)
GPGPU-Sim uArch: core:  1, cta: 1 initialized @(2,0)
GPGPU-Sim uArch: core:  2, cta: 1 initialized @(2,0)
GPGPU-Sim uArch: core:  3, cta: 1 initialized @(2,0)
GPGPU-Sim uArch: core:  4, cta: 1 initialized @(2,0)
GPGPU-Sim uArch: core:  5, cta: 1 initialized @(2,0)
GPGPU-Sim uArch: core:  6, cta: 1 initialized @(2,0)
GPGPU-Sim uArch: core:  7, cta: 1 initialized @(2,0)
GPGPU-Sim uArch: core:  8, cta: 1 initialized @(2,0)
GPGPU-Sim uArch: core:  9, cta: 1 initialized @(2,0)
GPGPU-Sim uArch: core: 10, cta: 1 initialized @(2,0)
GPGPU-Sim uArch: core: 11, cta: 1 initialized @(2,0)
GPGPU-Sim uArch: core: 12, cta: 1 initialized @(2,0)
GPGPU-Sim uArch: core: 13, cta: 1 initialized @(2,0)
GPGPU-Sim uArch: core: 14, cta: 1 initialized @(2,0)
GPGPU-Sim uArch: core:  0, cta: 1 initialized @(2,0)
GPGPU-Sim uArch: core:  1, cta: 2 initialized @(3,0)
GPGPU-Sim uArch: core:  2, cta: 2 initialized @(3,0)
GPGPU-Sim uArch: core:  3, cta: 2 initialized @(3,0)
GPGPU-Sim uArch: core:  4, cta: 2 initialized @(3,0)
GPGPU-Sim uArch: core:  5, cta: 2 initialized @(3,0)
GPGPU-Sim uArch: core:  6, cta: 2 initialized @(3,0)
GPGPU-Sim uArch: core:  7, cta: 2 initialized @(3,0)
GPGPU-Sim uArch: core:  8, cta: 2 initialized @(3,0)
GPGPU-Sim uArch: core:  9, cta: 2 initialized @(3,0)
GPGPU-Sim uArch: core: 10, cta: 2 initialized @(3,0)
GPGPU-Sim uArch: core: 11, cta: 2 initialized @(3,0)
GPGPU-Sim uArch: core: 12, cta: 2 initialized @(3,0)
GPGPU-Sim uArch: core: 13, cta: 2 initialized @(3,0)
GPGPU-Sim uArch: core: 14, cta: 2 initialized @(3,0)
GPGPU-Sim uArch: core:  0, cta: 2 initialized @(3,0)
GPGPU-Sim uArch: core:  1, cta: 3 initialized @(4,0)
GPGPU-Sim uArch: core:  2, cta: 3 initialized @(4,0)
GPGPU-Sim uArch: core:  3, cta: 3 initialized @(4,0)
GPGPU-Sim uArch: core:  4, cta: 3 initialized @(4,0)
GPGPU-Sim uArch: core:  5, cta: 3 initialized @(4,0)
GPGPU-Sim uArch: core:  6, cta: 3 initialized @(4,0)
GPGPU-Sim uArch: core:  7, cta: 3 initialized @(4,0)
GPGPU-Sim uArch: core:  8, cta: 3 initialized @(4,0)
GPGPU-Sim uArch: core:  9, cta: 3 initialized @(4,0)
GPGPU-Sim uArch: core: 10, cta: 3 initialized @(4,0)
GPGPU-Sim uArch: core: 11, cta: 3 initialized @(4,0)
GPGPU-Sim uArch: core: 12, cta: 3 initialized @(4,0)
GPGPU-Sim uArch: core: 13, cta: 3 initialized @(4,0)
GPGPU-Sim uArch: core: 14, cta: 3 initialized @(4,0)
GPGPU-Sim uArch: core:  0, cta: 3 initialized @(4,0)
GPGPU-Sim uArch: core:  1, cta: 4 initialized @(5,0)
GPGPU-Sim uArch: core:  2, cta: 4 initialized @(5,0)
GPGPU-Sim uArch: core:  3, cta: 4 initialized @(5,0)
GPGPU-Sim uArch: core:  4, cta: 4 initialized @(5,0)
GPGPU-Sim uArch: core:  5, cta: 4 initialized @(5,0)
GPGPU-Sim uArch: core:  6, cta: 4 initialized @(5,0)
GPGPU-Sim uArch: core:  7, cta: 4 initialized @(5,0)
GPGPU-Sim uArch: core:  8, cta: 4 initialized @(5,0)
GPGPU-Sim uArch: core:  9, cta: 4 initialized @(5,0)
GPGPU-Sim uArch: core: 10, cta: 4 initialized @(5,0)
GPGPU-Sim uArch: core: 11, cta: 4 initialized @(5,0)
GPGPU-Sim uArch: core: 12, cta: 4 initialized @(5,0)
GPGPU-Sim uArch: core: 13, cta: 4 initialized @(5,0)
GPGPU-Sim uArch: core: 14, cta: 4 initialized @(5,0)
GPGPU-Sim uArch: core:  0, cta: 4 initialized @(5,0)
GPGPU-Sim uArch: core:  1, cta: 5 initialized @(6,0)
GPGPU-Sim uArch: core:  2, cta: 5 initialized @(6,0)
GPGPU-Sim uArch: core:  3, cta: 5 initialized @(6,0)
GPGPU-Sim uArch: core:  4, cta: 5 initialized @(6,0)
GPGPU-Sim uArch: core:  5, cta: 5 initialized @(6,0)
GPGPU-Sim uArch: core:  6, cta: 5 initialized @(6,0)
GPGPU-Sim uArch: core:  7, cta: 5 initialized @(6,0)
GPGPU-Sim uArch: core:  8, cta: 5 initialized @(6,0)
GPGPU-Sim uArch: core:  9, cta: 5 initialized @(6,0)
GPGPU-Sim uArch: core: 10, cta: 5 initialized @(6,0)
GPGPU-Sim uArch: core: 11, cta: 5 initialized @(6,0)
GPGPU-Sim uArch: core: 12, cta: 5 initialized @(6,0)
GPGPU-Sim uArch: core: 13, cta: 5 initialized @(6,0)
GPGPU-Sim uArch: core: 14, cta: 5 initialized @(6,0)
GPGPU-Sim uArch: core:  0, cta: 5 initialized @(6,0)
GPGPU-Sim PTX: 100000 instructions simulated : ctaid=(0,2,0) tid=(15,9,0)
GPGPU-Sim uArch: cycles simulated: 500  inst.: 137152 (ipc=274.3) sim_rate=137152 (inst/sec) elapsed = 0:0:00:01 / Sat Mar  7 21:35:29 2015
GPGPU-Sim PTX: 200000 instructions simulated : ctaid=(3,5,0) tid=(15,1,0)
GPGPU-Sim PTX: 300000 instructions simulated : ctaid=(14,3,0) tid=(15,5,0)
GPGPU-Sim PTX: 400000 instructions simulated : ctaid=(13,3,0) tid=(15,1,0)
GPGPU-Sim PTX: 500000 instructions simulated : ctaid=(1,4,0) tid=(15,1,0)
GPGPU-Sim PTX: 600000 instructions simulated : ctaid=(11,1,0) tid=(15,9,0)
GPGPU-Sim PTX: 700000 instructions simulated : ctaid=(13,0,0) tid=(15,3,0)
GPGPU-Sim uArch: cycles simulated: 1500  inst.: 645056 (ipc=430.0) sim_rate=322528 (inst/sec) elapsed = 0:0:00:02 / Sat Mar  7 21:35:30 2015
GPGPU-Sim PTX: 800000 instructions simulated : ctaid=(8,3,0) tid=(15,11,0)
GPGPU-Sim PTX: 900000 instructions simulated : ctaid=(7,5,0) tid=(15,15,0)
GPGPU-Sim PTX: 1000000 instructions simulated : ctaid=(1,2,0) tid=(15,9,0)
GPGPU-Sim uArch: cycles simulated: 2500  inst.: 935264 (ipc=374.1) sim_rate=311754 (inst/sec) elapsed = 0:0:00:03 / Sat Mar  7 21:35:31 2015
GPGPU-Sim PTX: 1100000 instructions simulated : ctaid=(0,1,0) tid=(7,0,0)
GPGPU-Sim PTX: 1200000 instructions simulated : ctaid=(15,3,0) tid=(11,10,0)
GPGPU-Sim PTX: 1300000 instructions simulated : ctaid=(2,1,0) tid=(11,4,0)
GPGPU-Sim uArch: cycles simulated: 3000  inst.: 1126192 (ipc=375.4) sim_rate=281548 (inst/sec) elapsed = 0:0:00:04 / Sat Mar  7 21:35:32 2015
GPGPU-Sim PTX: 1400000 instructions simulated : ctaid=(12,2,0) tid=(7,7,0)
GPGPU-Sim PTX: 1500000 instructions simulated : ctaid=(0,1,0) tid=(3,13,0)
GPGPU-Sim PTX: 1600000 instructions simulated : ctaid=(14,0,0) tid=(11,2,0)
GPGPU-Sim PTX: 1700000 instructions simulated : ctaid=(13,3,0) tid=(15,12,0)
GPGPU-Sim PTX: 1800000 instructions simulated : ctaid=(11,2,0) tid=(1,11,0)
GPGPU-Sim PTX: 1900000 instructions simulated : ctaid=(6,5,0) tid=(1,0,0)
GPGPU-Sim PTX: 2000000 instructions simulated : ctaid=(2,1,0) tid=(11,11,0)
GPGPU-Sim PTX: 2100000 instructions simulated : ctaid=(8,5,0) tid=(13,13,0)
GPGPU-Sim uArch: cycles simulated: 4000  inst.: 1817610 (ipc=454.4) sim_rate=363522 (inst/sec) elapsed = 0:0:00:05 / Sat Mar  7 21:35:33 2015
GPGPU-Sim PTX: 2200000 instructions simulated : ctaid=(5,5,0) tid=(7,2,0)
GPGPU-Sim PTX: 2300000 instructions simulated : ctaid=(7,3,0) tid=(5,12,0)
GPGPU-Sim PTX: 2400000 instructions simulated : ctaid=(12,0,0) tid=(3,3,0)
GPGPU-Sim PTX: 2500000 instructions simulated : ctaid=(5,2,0) tid=(1,2,0)
GPGPU-Sim uArch: cycles simulated: 4500  inst.: 2192534 (ipc=487.2) sim_rate=365422 (inst/sec) elapsed = 0:0:00:06 / Sat Mar  7 21:35:34 2015
GPGPU-Sim PTX: 2600000 instructions simulated : ctaid=(15,0,0) tid=(7,13,0)
GPGPU-Sim PTX: 2700000 instructions simulated : ctaid=(2,5,0) tid=(5,14,0)
GPGPU-Sim PTX: 2800000 instructions simulated : ctaid=(8,3,0) tid=(15,13,0)
GPGPU-Sim PTX: 2900000 instructions simulated : ctaid=(9,4,0) tid=(5,12,0)
GPGPU-Sim PTX: 3000000 instructions simulated : ctaid=(12,4,0) tid=(15,10,0)
GPGPU-Sim uArch: cycles simulated: 5000  inst.: 2554290 (ipc=510.9) sim_rate=364898 (inst/sec) elapsed = 0:0:00:07 / Sat Mar  7 21:35:35 2015
GPGPU-Sim PTX: 3100000 instructions simulated : ctaid=(13,4,0) tid=(7,0,0)
GPGPU-Sim PTX: 3200000 instructions simulated : ctaid=(7,1,0) tid=(1,2,0)
GPGPU-Sim PTX: 3300000 instructions simulated : ctaid=(0,2,0) tid=(5,14,0)
GPGPU-Sim PTX: 3400000 instructions simulated : ctaid=(10,1,0) tid=(9,6,0)
GPGPU-Sim uArch: cycles simulated: 5500  inst.: 2922908 (ipc=531.4) sim_rate=365363 (inst/sec) elapsed = 0:0:00:08 / Sat Mar  7 21:35:36 2015
GPGPU-Sim PTX: 3500000 instructions simulated : ctaid=(15,2,0) tid=(7,9,0)
GPGPU-Sim PTX: 3600000 instructions simulated : ctaid=(15,1,0) tid=(3,4,0)
GPGPU-Sim PTX: 3700000 instructions simulated : ctaid=(10,3,0) tid=(5,10,0)
GPGPU-Sim PTX: 3800000 instructions simulated : ctaid=(4,0,0) tid=(3,14,0)
GPGPU-Sim uArch: cycles simulated: 6000  inst.: 3292964 (ipc=548.8) sim_rate=365884 (inst/sec) elapsed = 0:0:00:09 / Sat Mar  7 21:35:37 2015
GPGPU-Sim PTX: 3900000 instructions simulated : ctaid=(8,0,0) tid=(15,12,0)
GPGPU-Sim PTX: 4000000 instructions simulated : ctaid=(7,4,0) tid=(15,6,0)
GPGPU-Sim PTX: 4100000 instructions simulated : ctaid=(4,5,0) tid=(1,13,0)
GPGPU-Sim PTX: 4200000 instructions simulated : ctaid=(0,5,0) tid=(6,10,0)
GPGPU-Sim uArch: cycles simulated: 6500  inst.: 3653432 (ipc=562.1) sim_rate=365343 (inst/sec) elapsed = 0:0:00:10 / Sat Mar  7 21:35:38 2015
GPGPU-Sim PTX: 4300000 instructions simulated : ctaid=(11,3,0) tid=(9,0,0)
GPGPU-Sim PTX: 4400000 instructions simulated : ctaid=(8,5,0) tid=(5,1,0)
GPGPU-Sim PTX: 4500000 instructions simulated : ctaid=(6,0,0) tid=(5,14,0)
GPGPU-Sim PTX: 4600000 instructions simulated : ctaid=(7,3,0) tid=(11,10,0)
GPGPU-Sim PTX: 4700000 instructions simulated : ctaid=(3,4,0) tid=(5,3,0)
GPGPU-Sim PTX: 4800000 instructions simulated : ctaid=(5,1,0) tid=(3,13,0)
GPGPU-Sim PTX: 4900000 instructions simulated : ctaid=(8,0,0) tid=(9,2,0)
GPGPU-Sim PTX: 5000000 instructions simulated : ctaid=(15,0,0) tid=(7,14,0)
GPGPU-Sim PTX: 5100000 instructions simulated : ctaid=(6,1,0) tid=(6,2,0)
GPGPU-Sim uArch: cycles simulated: 7500  inst.: 4406041 (ipc=587.5) sim_rate=400549 (inst/sec) elapsed = 0:0:00:11 / Sat Mar  7 21:35:39 2015
GPGPU-Sim PTX: 5200000 instructions simulated : ctaid=(3,1,0) tid=(0,15,0)
GPGPU-Sim PTX: 5300000 instructions simulated : ctaid=(7,0,0) tid=(0,9,0)
GPGPU-Sim PTX: 5400000 instructions simulated : ctaid=(15,1,0) tid=(4,3,0)
GPGPU-Sim PTX: 5500000 instructions simulated : ctaid=(8,5,0) tid=(8,5,0)
GPGPU-Sim PTX: 5600000 instructions simulated : ctaid=(8,3,0) tid=(0,4,0)
GPGPU-Sim uArch: cycles simulated: 8000  inst.: 4784255 (ipc=598.0) sim_rate=398687 (inst/sec) elapsed = 0:0:00:12 / Sat Mar  7 21:35:40 2015
GPGPU-Sim PTX: 5700000 instructions simulated : ctaid=(15,2,0) tid=(6,2,0)
GPGPU-Sim PTX: 5800000 instructions simulated : ctaid=(3,0,0) tid=(6,3,0)
GPGPU-Sim PTX: 5900000 instructions simulated : ctaid=(2,0,0) tid=(1,12,0)
GPGPU-Sim PTX: 6000000 instructions simulated : ctaid=(6,1,0) tid=(10,12,0)
GPGPU-Sim uArch: cycles simulated: 8500  inst.: 5143113 (ipc=605.1) sim_rate=395624 (inst/sec) elapsed = 0:0:00:13 / Sat Mar  7 21:35:41 2015
GPGPU-Sim PTX: 6100000 instructions simulated : ctaid=(7,3,0) tid=(7,1,0)
GPGPU-Sim PTX: 6200000 instructions simulated : ctaid=(9,5,0) tid=(6,11,0)
GPGPU-Sim PTX: 6300000 instructions simulated : ctaid=(13,0,0) tid=(11,14,0)
GPGPU-Sim PTX: 6400000 instructions simulated : ctaid=(13,0,0) tid=(5,1,0)
GPGPU-Sim PTX: 6500000 instructions simulated : ctaid=(7,1,0) tid=(15,13,0)
GPGPU-Sim uArch: cycles simulated: 9000  inst.: 5520316 (ipc=613.4) sim_rate=394308 (inst/sec) elapsed = 0:0:00:14 / Sat Mar  7 21:35:42 2015
GPGPU-Sim PTX: 6600000 instructions simulated : ctaid=(4,0,0) tid=(15,8,0)
GPGPU-Sim PTX: 6700000 instructions simulated : ctaid=(7,4,0) tid=(1,12,0)
GPGPU-Sim PTX: 6800000 instructions simulated : ctaid=(12,3,0) tid=(9,15,0)
GPGPU-Sim PTX: 6900000 instructions simulated : ctaid=(6,4,0) tid=(5,13,0)
GPGPU-Sim uArch: cycles simulated: 9500  inst.: 5892612 (ipc=620.3) sim_rate=392840 (inst/sec) elapsed = 0:0:00:15 / Sat Mar  7 21:35:43 2015
GPGPU-Sim PTX: 7000000 instructions simulated : ctaid=(8,5,0) tid=(5,9,0)
GPGPU-Sim PTX: 7100000 instructions simulated : ctaid=(2,2,0) tid=(3,15,0)
GPGPU-Sim PTX: 7200000 instructions simulated : ctaid=(15,2,0) tid=(11,12,0)
GPGPU-Sim PTX: 7300000 instructions simulated : ctaid=(10,4,0) tid=(13,4,0)
GPGPU-Sim PTX: 7400000 instructions simulated : ctaid=(5,0,0) tid=(11,13,0)
GPGPU-Sim PTX: 7500000 instructions simulated : ctaid=(5,2,0) tid=(6,8,0)
GPGPU-Sim PTX: 7600000 instructions simulated : ctaid=(9,3,0) tid=(12,2,0)
GPGPU-Sim PTX: 7700000 instructions simulated : ctaid=(12,4,0) tid=(0,1,0)
GPGPU-Sim PTX: 7800000 instructions simulated : ctaid=(9,1,0) tid=(8,10,0)
GPGPU-Sim uArch: cycles simulated: 10500  inst.: 6632533 (ipc=631.7) sim_rate=414533 (inst/sec) elapsed = 0:0:00:16 / Sat Mar  7 21:35:44 2015
GPGPU-Sim PTX: 7900000 instructions simulated : ctaid=(12,1,0) tid=(6,12,0)
GPGPU-Sim PTX: 8000000 instructions simulated : ctaid=(3,0,0) tid=(14,0,0)
GPGPU-Sim PTX: 8100000 instructions simulated : ctaid=(7,5,0) tid=(10,12,0)
GPGPU-Sim PTX: 8200000 instructions simulated : ctaid=(7,0,0) tid=(10,3,0)
GPGPU-Sim uArch: cycles simulated: 11000  inst.: 7004339 (ipc=636.8) sim_rate=412019 (inst/sec) elapsed = 0:0:00:17 / Sat Mar  7 21:35:45 2015
GPGPU-Sim PTX: 8300000 instructions simulated : ctaid=(2,2,0) tid=(10,14,0)
GPGPU-Sim PTX: 8400000 instructions simulated : ctaid=(6,4,0) tid=(7,10,0)
GPGPU-Sim PTX: 8500000 instructions simulated : ctaid=(2,1,0) tid=(15,12,0)
GPGPU-Sim PTX: 8600000 instructions simulated : ctaid=(10,4,0) tid=(10,9,0)
GPGPU-Sim PTX: 8700000 instructions simulated : ctaid=(5,5,0) tid=(2,6,0)
GPGPU-Sim uArch: cycles simulated: 11500  inst.: 7379062 (ipc=641.7) sim_rate=409947 (inst/sec) elapsed = 0:0:00:18 / Sat Mar  7 21:35:46 2015
GPGPU-Sim PTX: 8800000 instructions simulated : ctaid=(0,4,0) tid=(14,6,0)
GPGPU-Sim PTX: 8900000 instructions simulated : ctaid=(4,2,0) tid=(3,14,0)
GPGPU-Sim PTX: 9000000 instructions simulated : ctaid=(11,4,0) tid=(7,11,0)
GPGPU-Sim PTX: 9100000 instructions simulated : ctaid=(15,3,0) tid=(15,5,0)
GPGPU-Sim uArch: cycles simulated: 12000  inst.: 7755654 (ipc=646.3) sim_rate=408192 (inst/sec) elapsed = 0:0:00:19 / Sat Mar  7 21:35:47 2015
GPGPU-Sim PTX: 9200000 instructions simulated : ctaid=(7,2,0) tid=(9,10,0)
GPGPU-Sim PTX: 9300000 instructions simulated : ctaid=(12,0,0) tid=(7,3,0)
GPGPU-Sim PTX: 9400000 instructions simulated : ctaid=(9,4,0) tid=(1,14,0)
GPGPU-Sim PTX: 9500000 instructions simulated : ctaid=(1,2,0) tid=(5,9,0)
GPGPU-Sim PTX: 9600000 instructions simulated : ctaid=(10,1,0) tid=(5,12,0)
GPGPU-Sim uArch: cycles simulated: 12500  inst.: 8131574 (ipc=650.5) sim_rate=406578 (inst/sec) elapsed = 0:0:00:20 / Sat Mar  7 21:35:48 2015
GPGPU-Sim PTX: 9700000 instructions simulated : ctaid=(3,2,0) tid=(1,11,0)
GPGPU-Sim PTX: 9800000 instructions simulated : ctaid=(12,2,0) tid=(7,9,0)
GPGPU-Sim PTX: 9900000 instructions simulated : ctaid=(11,2,0) tid=(15,3,0)
GPGPU-Sim PTX: 10000000 instructions simulated : ctaid=(9,0,0) tid=(3,1,0)
GPGPU-Sim uArch: cycles simulated: 13000  inst.: 8509914 (ipc=654.6) sim_rate=405234 (inst/sec) elapsed = 0:0:00:21 / Sat Mar  7 21:35:49 2015
GPGPU-Sim PTX: 10100000 instructions simulated : ctaid=(4,4,0) tid=(13,7,0)
GPGPU-Sim PTX: 10200000 instructions simulated : ctaid=(8,0,0) tid=(9,10,0)
GPGPU-Sim PTX: 10300000 instructions simulated : ctaid=(14,4,0) tid=(9,5,0)
GPGPU-Sim PTX: 10400000 instructions simulated : ctaid=(0,0,0) tid=(15,11,0)
GPGPU-Sim uArch: cycles simulated: 13500  inst.: 8884622 (ipc=658.1) sim_rate=386287 (inst/sec) elapsed = 0:0:00:23 / Sat Mar  7 21:35:51 2015
GPGPU-Sim PTX: 10500000 instructions simulated : ctaid=(6,2,0) tid=(15,2,0)
GPGPU-Sim PTX: 10600000 instructions simulated : ctaid=(3,5,0) tid=(1,12,0)
GPGPU-Sim PTX: 10700000 instructions simulated : ctaid=(4,1,0) tid=(1,12,0)
GPGPU-Sim PTX: 10800000 instructions simulated : ctaid=(10,2,0) tid=(11,2,0)
GPGPU-Sim PTX: 10900000 instructions simulated : ctaid=(14,1,0) tid=(13,15,0)
GPGPU-Sim PTX: 11000000 instructions simulated : ctaid=(12,4,0) tid=(9,0,0)
GPGPU-Sim PTX: 11100000 instructions simulated : ctaid=(12,0,0) tid=(13,6,0)
GPGPU-Sim PTX: 11200000 instructions simulated : ctaid=(8,3,0) tid=(15,1,0)
GPGPU-Sim PTX: 11300000 instructions simulated : ctaid=(11,3,0) tid=(15,1,0)
GPGPU-Sim uArch: cycles simulated: 14500  inst.: 9639080 (ipc=664.8) sim_rate=401628 (inst/sec) elapsed = 0:0:00:24 / Sat Mar  7 21:35:52 2015
GPGPU-Sim PTX: 11400000 instructions simulated : ctaid=(9,0,0) tid=(5,6,0)
GPGPU-Sim PTX: 11500000 instructions simulated : ctaid=(14,3,0) tid=(11,10,0)
GPGPU-Sim PTX: 11600000 instructions simulated : ctaid=(6,3,0) tid=(3,2,0)
GPGPU-Sim PTX: 11700000 instructions simulated : ctaid=(0,1,0) tid=(7,9,0)
GPGPU-Sim PTX: 11800000 instructions simulated : ctaid=(2,0,0) tid=(1,4,0)
GPGPU-Sim uArch: cycles simulated: 15000  inst.: 10015256 (ipc=667.7) sim_rate=400610 (inst/sec) elapsed = 0:0:00:25 / Sat Mar  7 21:35:53 2015
GPGPU-Sim PTX: 11900000 instructions simulated : ctaid=(1,5,0) tid=(7,14,0)
GPGPU-Sim PTX: 12000000 instructions simulated : ctaid=(15,4,0) tid=(13,3,0)
GPGPU-Sim PTX: 12100000 instructions simulated : ctaid=(14,0,0) tid=(9,14,0)
GPGPU-Sim PTX: 12200000 instructions simulated : ctaid=(11,3,0) tid=(15,8,0)
GPGPU-Sim uArch: cycles simulated: 15500  inst.: 10389360 (ipc=670.3) sim_rate=399590 (inst/sec) elapsed = 0:0:00:26 / Sat Mar  7 21:35:54 2015
GPGPU-Sim PTX: 12300000 instructions simulated : ctaid=(0,3,0) tid=(13,13,0)
GPGPU-Sim PTX: 12400000 instructions simulated : ctaid=(3,5,0) tid=(15,5,0)
GPGPU-Sim PTX: 12500000 instructions simulated : ctaid=(2,0,0) tid=(1,10,0)
GPGPU-Sim PTX: 12600000 instructions simulated : ctaid=(9,0,0) tid=(11,2,0)
GPGPU-Sim PTX: 12700000 instructions simulated : ctaid=(13,0,0) tid=(1,15,0)
GPGPU-Sim uArch: cycles simulated: 16000  inst.: 10761372 (ipc=672.6) sim_rate=398569 (inst/sec) elapsed = 0:0:00:27 / Sat Mar  7 21:35:55 2015
GPGPU-Sim PTX: 12800000 instructions simulated : ctaid=(13,2,0) tid=(1,1,0)
GPGPU-Sim PTX: 12900000 instructions simulated : ctaid=(9,4,0) tid=(11,4,0)
GPGPU-Sim PTX: 13000000 instructions simulated : ctaid=(3,5,0) tid=(9,12,0)
GPGPU-Sim PTX: 13100000 instructions simulated : ctaid=(0,5,0) tid=(15,5,0)
GPGPU-Sim PTX: 13200000 instructions simulated : ctaid=(1,1,0) tid=(1,7,0)
GPGPU-Sim PTX: 13300000 instructions simulated : ctaid=(0,5,0) tid=(15,6,0)
GPGPU-Sim PTX: 13400000 instructions simulated : ctaid=(12,2,0) tid=(5,10,0)
GPGPU-Sim PTX: 13500000 instructions simulated : ctaid=(0,3,0) tid=(13,13,0)
GPGPU-Sim uArch: cycles simulated: 17000  inst.: 11508856 (ipc=677.0) sim_rate=411030 (inst/sec) elapsed = 0:0:00:28 / Sat Mar  7 21:35:56 2015
GPGPU-Sim PTX: 13600000 instructions simulated : ctaid=(12,0,0) tid=(5,4,0)
GPGPU-Sim PTX: 13700000 instructions simulated : ctaid=(8,4,0) tid=(1,0,0)
GPGPU-Sim PTX: 13800000 instructions simulated : ctaid=(12,0,0) tid=(13,14,0)
GPGPU-Sim PTX: 13900000 instructions simulated : ctaid=(3,4,0) tid=(11,15,0)
GPGPU-Sim PTX: 14000000 instructions simulated : ctaid=(13,4,0) tid=(13,4,0)
GPGPU-Sim uArch: cycles simulated: 17500  inst.: 11885112 (ipc=679.1) sim_rate=409831 (inst/sec) elapsed = 0:0:00:29 / Sat Mar  7 21:35:57 2015
GPGPU-Sim PTX: 14100000 instructions simulated : ctaid=(13,3,0) tid=(7,3,0)
GPGPU-Sim PTX: 14200000 instructions simulated : ctaid=(5,1,0) tid=(1,9,0)
GPGPU-Sim PTX: 14300000 instructions simulated : ctaid=(3,0,0) tid=(13,7,0)
GPGPU-Sim PTX: 14400000 instructions simulated : ctaid=(15,4,0) tid=(5,14,0)
GPGPU-Sim uArch: cycles simulated: 18000  inst.: 12261062 (ipc=681.2) sim_rate=408702 (inst/sec) elapsed = 0:0:00:30 / Sat Mar  7 21:35:58 2015
GPGPU-Sim PTX: 14500000 instructions simulated : ctaid=(8,1,0) tid=(5,2,0)
GPGPU-Sim PTX: 14600000 instructions simulated : ctaid=(0,2,0) tid=(5,6,0)
GPGPU-Sim PTX: 14700000 instructions simulated : ctaid=(3,1,0) tid=(5,5,0)
GPGPU-Sim PTX: 14800000 instructions simulated : ctaid=(11,0,0) tid=(13,14,0)
GPGPU-Sim PTX: 14900000 instructions simulated : ctaid=(8,0,0) tid=(3,6,0)
GPGPU-Sim uArch: cycles simulated: 18500  inst.: 12633794 (ipc=682.9) sim_rate=407541 (inst/sec) elapsed = 0:0:00:31 / Sat Mar  7 21:35:59 2015
GPGPU-Sim PTX: 15000000 instructions simulated : ctaid=(6,2,0) tid=(3,1,0)
GPGPU-Sim PTX: 15100000 instructions simulated : ctaid=(10,4,0) tid=(5,4,0)
GPGPU-Sim PTX: 15200000 instructions simulated : ctaid=(12,1,0) tid=(4,6,0)
GPGPU-Sim PTX: 15300000 instructions simulated : ctaid=(15,1,0) tid=(10,10,0)
GPGPU-Sim uArch: cycles simulated: 19000  inst.: 13008347 (ipc=684.6) sim_rate=406510 (inst/sec) elapsed = 0:0:00:32 / Sat Mar  7 21:36:00 2015
GPGPU-Sim PTX: 15400000 instructions simulated : ctaid=(14,3,0) tid=(10,13,0)
GPGPU-Sim PTX: 15500000 instructions simulated : ctaid=(9,3,0) tid=(4,9,0)
GPGPU-Sim PTX: 15600000 instructions simulated : ctaid=(15,1,0) tid=(10,10,0)
GPGPU-Sim PTX: 15700000 instructions simulated : ctaid=(15,2,0) tid=(10,4,0)
GPGPU-Sim PTX: 15800000 instructions simulated : ctaid=(7,2,0) tid=(6,11,0)
GPGPU-Sim uArch: cycles simulated: 19500  inst.: 13381983 (ipc=686.3) sim_rate=405514 (inst/sec) elapsed = 0:0:00:33 / Sat Mar  7 21:36:01 2015
GPGPU-Sim PTX: 15900000 instructions simulated : ctaid=(6,2,0) tid=(8,9,0)
GPGPU-Sim PTX: 16000000 instructions simulated : ctaid=(14,0,0) tid=(10,7,0)
GPGPU-Sim PTX: 16100000 instructions simulated : ctaid=(15,4,0) tid=(5,3,0)
GPGPU-Sim PTX: 16200000 instructions simulated : ctaid=(14,4,0) tid=(11,7,0)
GPGPU-Sim PTX: 16300000 instructions simulated : ctaid=(10,1,0) tid=(7,9,0)
GPGPU-Sim PTX: 16400000 instructions simulated : ctaid=(7,3,0) tid=(5,13,0)
GPGPU-Sim PTX: 16500000 instructions simulated : ctaid=(13,3,0) tid=(15,9,0)
GPGPU-Sim PTX: 16600000 instructions simulated : ctaid=(10,3,0) tid=(5,15,0)
GPGPU-Sim uArch: cycles simulated: 20500  inst.: 14129602 (ipc=689.2) sim_rate=415576 (inst/sec) elapsed = 0:0:00:34 / Sat Mar  7 21:36:02 2015
GPGPU-Sim PTX: 16700000 instructions simulated : ctaid=(8,1,0) tid=(13,1,0)
GPGPU-Sim PTX: 16800000 instructions simulated : ctaid=(8,2,0) tid=(15,8,0)
GPGPU-Sim PTX: 16900000 instructions simulated : ctaid=(13,2,0) tid=(9,14,0)
GPGPU-Sim PTX: 17000000 instructions simulated : ctaid=(14,4,0) tid=(11,15,0)
GPGPU-Sim PTX: 17100000 instructions simulated : ctaid=(14,0,0) tid=(7,10,0)
GPGPU-Sim uArch: cycles simulated: 21000  inst.: 14500468 (ipc=690.5) sim_rate=414299 (inst/sec) elapsed = 0:0:00:35 / Sat Mar  7 21:36:03 2015
GPGPU-Sim PTX: 17200000 instructions simulated : ctaid=(12,0,0) tid=(9,5,0)
GPGPU-Sim PTX: 17300000 instructions simulated : ctaid=(2,1,0) tid=(1,15,0)
GPGPU-Sim PTX: 17400000 instructions simulated : ctaid=(12,1,0) tid=(9,10,0)
GPGPU-Sim PTX: 17500000 instructions simulated : ctaid=(14,1,0) tid=(4,14,0)
GPGPU-Sim uArch: cycles simulated: 21500  inst.: 14878153 (ipc=692.0) sim_rate=413282 (inst/sec) elapsed = 0:0:00:36 / Sat Mar  7 21:36:04 2015
GPGPU-Sim PTX: 17600000 instructions simulated : ctaid=(13,4,0) tid=(0,3,0)
GPGPU-Sim PTX: 17700000 instructions simulated : ctaid=(6,3,0) tid=(4,11,0)
GPGPU-Sim PTX: 17800000 instructions simulated : ctaid=(10,4,0) tid=(12,2,0)
GPGPU-Sim PTX: 17900000 instructions simulated : ctaid=(6,5,0) tid=(0,14,0)
GPGPU-Sim PTX: 18000000 instructions simulated : ctaid=(2,5,0) tid=(12,8,0)
GPGPU-Sim uArch: cycles simulated: 22000  inst.: 15252339 (ipc=693.3) sim_rate=412225 (inst/sec) elapsed = 0:0:00:37 / Sat Mar  7 21:36:05 2015
GPGPU-Sim PTX: 18100000 instructions simulated : ctaid=(2,3,0) tid=(14,9,0)
GPGPU-Sim PTX: 18200000 instructions simulated : ctaid=(14,1,0) tid=(8,14,0)
GPGPU-Sim PTX: 18300000 instructions simulated : ctaid=(7,4,0) tid=(12,0,0)
GPGPU-Sim PTX: 18400000 instructions simulated : ctaid=(2,2,0) tid=(5,13,0)
GPGPU-Sim uArch: cycles simulated: 22500  inst.: 15629769 (ipc=694.7) sim_rate=411309 (inst/sec) elapsed = 0:0:00:38 / Sat Mar  7 21:36:06 2015
GPGPU-Sim PTX: 18500000 instructions simulated : ctaid=(15,2,0) tid=(12,3,0)
GPGPU-Sim PTX: 18600000 instructions simulated : ctaid=(8,3,0) tid=(14,15,0)
GPGPU-Sim PTX: 18700000 instructions simulated : ctaid=(3,3,0) tid=(8,13,0)
GPGPU-Sim PTX: 18800000 instructions simulated : ctaid=(1,2,0) tid=(0,5,0)
GPGPU-Sim PTX: 18900000 instructions simulated : ctaid=(8,1,0) tid=(11,0,0)
GPGPU-Sim uArch: cycles simulated: 23000  inst.: 15999970 (ipc=695.7) sim_rate=410255 (inst/sec) elapsed = 0:0:00:39 / Sat Mar  7 21:36:07 2015
GPGPU-Sim PTX: 19000000 instructions simulated : ctaid=(5,4,0) tid=(15,7,0)
GPGPU-Sim PTX: 19100000 instructions simulated : ctaid=(0,4,0) tid=(7,11,0)
GPGPU-Sim PTX: 19200000 instructions simulated : ctaid=(9,4,0) tid=(1,0,0)
GPGPU-Sim PTX: 19300000 instructions simulated : ctaid=(13,3,0) tid=(9,5,0)
GPGPU-Sim PTX: 19400000 instructions simulated : ctaid=(4,2,0) tid=(5,5,0)
GPGPU-Sim PTX: 19500000 instructions simulated : ctaid=(6,0,0) tid=(11,10,0)
GPGPU-Sim PTX: 19600000 instructions simulated : ctaid=(1,2,0) tid=(15,5,0)
GPGPU-Sim PTX: 19700000 instructions simulated : ctaid=(5,0,0) tid=(3,11,0)
GPGPU-Sim PTX: 19800000 instructions simulated : ctaid=(11,1,0) tid=(9,1,0)
GPGPU-Sim uArch: cycles simulated: 24000  inst.: 16753846 (ipc=698.1) sim_rate=418846 (inst/sec) elapsed = 0:0:00:40 / Sat Mar  7 21:36:08 2015
GPGPU-Sim PTX: 19900000 instructions simulated : ctaid=(14,3,0) tid=(7,5,0)
GPGPU-Sim PTX: 20000000 instructions simulated : ctaid=(14,1,0) tid=(11,7,0)
GPGPU-Sim PTX: 20100000 instructions simulated : ctaid=(15,0,0) tid=(13,14,0)
GPGPU-Sim PTX: 20200000 instructions simulated : ctaid=(12,1,0) tid=(15,5,0)
GPGPU-Sim uArch: cycles simulated: 24500  inst.: 17128652 (ipc=699.1) sim_rate=417772 (inst/sec) elapsed = 0:0:00:41 / Sat Mar  7 21:36:09 2015
GPGPU-Sim PTX: 20300000 instructions simulated : ctaid=(5,0,0) tid=(11,6,0)
GPGPU-Sim PTX: 20400000 instructions simulated : ctaid=(14,0,0) tid=(1,11,0)
GPGPU-Sim PTX: 20500000 instructions simulated : ctaid=(10,3,0) tid=(3,11,0)
GPGPU-Sim PTX: 20600000 instructions simulated : ctaid=(15,0,0) tid=(13,9,0)
GPGPU-Sim uArch: cycles simulated: 25000  inst.: 17502486 (ipc=700.1) sim_rate=416725 (inst/sec) elapsed = 0:0:00:42 / Sat Mar  7 21:36:10 2015
GPGPU-Sim PTX: 20700000 instructions simulated : ctaid=(2,0,0) tid=(11,12,0)
GPGPU-Sim PTX: 20800000 instructions simulated : ctaid=(4,4,0) tid=(5,3,0)
GPGPU-Sim PTX: 20900000 instructions simulated : ctaid=(3,1,0) tid=(7,3,0)
GPGPU-Sim PTX: 21000000 instructions simulated : ctaid=(1,3,0) tid=(7,9,0)
GPGPU-Sim PTX: 21100000 instructions simulated : ctaid=(3,1,0) tid=(5,0,0)
GPGPU-Sim uArch: cycles simulated: 25500  inst.: 17876472 (ipc=701.0) sim_rate=415731 (inst/sec) elapsed = 0:0:00:43 / Sat Mar  7 21:36:11 2015
GPGPU-Sim PTX: 21200000 instructions simulated : ctaid=(15,4,0) tid=(13,14,0)
GPGPU-Sim PTX: 21300000 instructions simulated : ctaid=(9,0,0) tid=(13,5,0)
GPGPU-Sim PTX: 21400000 instructions simulated : ctaid=(9,1,0) tid=(9,12,0)
GPGPU-Sim PTX: 21500000 instructions simulated : ctaid=(9,1,0) tid=(3,11,0)
GPGPU-Sim uArch: cycles simulated: 26000  inst.: 18251974 (ipc=702.0) sim_rate=414817 (inst/sec) elapsed = 0:0:00:44 / Sat Mar  7 21:36:12 2015
GPGPU-Sim PTX: 21600000 instructions simulated : ctaid=(9,1,0) tid=(15,11,0)
GPGPU-Sim PTX: 21700000 instructions simulated : ctaid=(0,1,0) tid=(11,6,0)
GPGPU-Sim PTX: 21800000 instructions simulated : ctaid=(11,0,0) tid=(11,5,0)
GPGPU-Sim PTX: 21900000 instructions simulated : ctaid=(1,0,0) tid=(3,3,0)
GPGPU-Sim PTX: 22000000 instructions simulated : ctaid=(1,3,0) tid=(3,13,0)
GPGPU-Sim uArch: cycles simulated: 26500  inst.: 18627032 (ipc=702.9) sim_rate=413934 (inst/sec) elapsed = 0:0:00:45 / Sat Mar  7 21:36:13 2015
GPGPU-Sim PTX: 22100000 instructions simulated : ctaid=(11,3,0) tid=(11,6,0)
GPGPU-Sim PTX: 22200000 instructions simulated : ctaid=(11,1,0) tid=(9,11,0)
GPGPU-Sim PTX: 22300000 instructions simulated : ctaid=(9,0,0) tid=(3,14,0)
GPGPU-Sim PTX: 22400000 instructions simulated : ctaid=(13,4,0) tid=(9,5,0)
GPGPU-Sim uArch: cycles simulated: 27000  inst.: 18998120 (ipc=703.6) sim_rate=413002 (inst/sec) elapsed = 0:0:00:46 / Sat Mar  7 21:36:14 2015
GPGPU-Sim PTX: 22500000 instructions simulated : ctaid=(3,2,0) tid=(9,12,0)
GPGPU-Sim PTX: 22600000 instructions simulated : ctaid=(4,5,0) tid=(7,9,0)
GPGPU-Sim PTX: 22700000 instructions simulated : ctaid=(9,5,0) tid=(3,1,0)
GPGPU-Sim PTX: 22800000 instructions simulated : ctaid=(7,4,0) tid=(9,4,0)
GPGPU-Sim PTX: 22900000 instructions simulated : ctaid=(7,5,0) tid=(11,10,0)
GPGPU-Sim PTX: 23000000 instructions simulated : ctaid=(13,1,0) tid=(9,3,0)
GPGPU-Sim PTX: 23100000 instructions simulated : ctaid=(1,1,0) tid=(3,4,0)
GPGPU-Sim PTX: 23200000 instructions simulated : ctaid=(3,1,0) tid=(11,9,0)
GPGPU-Sim PTX: 23300000 instructions simulated : ctaid=(13,4,0) tid=(5,4,0)
GPGPU-Sim uArch: cycles simulated: 28000  inst.: 19752262 (ipc=705.4) sim_rate=420260 (inst/sec) elapsed = 0:0:00:47 / Sat Mar  7 21:36:15 2015
GPGPU-Sim PTX: 23400000 instructions simulated : ctaid=(2,1,0) tid=(13,5,0)
GPGPU-Sim PTX: 23500000 instructions simulated : ctaid=(7,0,0) tid=(11,7,0)
GPGPU-Sim PTX: 23600000 instructions simulated : ctaid=(5,1,0) tid=(7,4,0)
GPGPU-Sim PTX: 23700000 instructions simulated : ctaid=(13,4,0) tid=(5,3,0)
GPGPU-Sim uArch: cycles simulated: 28500  inst.: 20123264 (ipc=706.1) sim_rate=419234 (inst/sec) elapsed = 0:0:00:48 / Sat Mar  7 21:36:16 2015
GPGPU-Sim PTX: 23800000 instructions simulated : ctaid=(0,2,0) tid=(10,6,0)
GPGPU-Sim PTX: 23900000 instructions simulated : ctaid=(9,5,0) tid=(7,9,0)
GPGPU-Sim PTX: 24000000 instructions simulated : ctaid=(4,2,0) tid=(13,8,0)
GPGPU-Sim PTX: 24100000 instructions simulated : ctaid=(13,4,0) tid=(3,7,0)
GPGPU-Sim PTX: 24200000 instructions simulated : ctaid=(6,1,0) tid=(7,5,0)
GPGPU-Sim uArch: cycles simulated: 29000  inst.: 20497680 (ipc=706.8) sim_rate=418320 (inst/sec) elapsed = 0:0:00:49 / Sat Mar  7 21:36:17 2015
GPGPU-Sim PTX: 24300000 instructions simulated : ctaid=(10,2,0) tid=(7,6,0)
GPGPU-Sim PTX: 24400000 instructions simulated : ctaid=(5,4,0) tid=(5,13,0)
GPGPU-Sim PTX: 24500000 instructions simulated : ctaid=(12,0,0) tid=(11,15,0)
GPGPU-Sim PTX: 24600000 instructions simulated : ctaid=(2,4,0) tid=(13,2,0)
GPGPU-Sim uArch: cycles simulated: 29500  inst.: 20867338 (ipc=707.4) sim_rate=417346 (inst/sec) elapsed = 0:0:00:50 / Sat Mar  7 21:36:18 2015
GPGPU-Sim PTX: 24700000 instructions simulated : ctaid=(10,2,0) tid=(13,13,0)
GPGPU-Sim PTX: 24800000 instructions simulated : ctaid=(15,4,0) tid=(1,1,0)
GPGPU-Sim PTX: 24900000 instructions simulated : ctaid=(12,3,0) tid=(9,14,0)
GPGPU-Sim PTX: 25000000 instructions simulated : ctaid=(8,1,0) tid=(11,15,0)
GPGPU-Sim PTX: 25100000 instructions simulated : ctaid=(7,0,0) tid=(9,10,0)
GPGPU-Sim uArch: cycles simulated: 30000  inst.: 21238072 (ipc=707.9) sim_rate=416432 (inst/sec) elapsed = 0:0:00:51 / Sat Mar  7 21:36:19 2015
GPGPU-Sim PTX: 25200000 instructions simulated : ctaid=(12,4,0) tid=(3,2,0)
GPGPU-Sim PTX: 25300000 instructions simulated : ctaid=(15,2,0) tid=(7,5,0)
GPGPU-Sim PTX: 25400000 instructions simulated : ctaid=(15,2,0) tid=(11,13,0)
GPGPU-Sim PTX: 25500000 instructions simulated : ctaid=(6,1,0) tid=(4,4,0)
GPGPU-Sim uArch: cycles simulated: 30500  inst.: 21611149 (ipc=708.6) sim_rate=415599 (inst/sec) elapsed = 0:0:00:52 / Sat Mar  7 21:36:20 2015
GPGPU-Sim PTX: 25600000 instructions simulated : ctaid=(5,2,0) tid=(14,7,0)
GPGPU-Sim PTX: 25700000 instructions simulated : ctaid=(9,5,0) tid=(0,7,0)
GPGPU-Sim PTX: 25800000 instructions simulated : ctaid=(13,2,0) tid=(12,14,0)
GPGPU-Sim PTX: 25900000 instructions simulated : ctaid=(0,3,0) tid=(4,6,0)
GPGPU-Sim uArch: cycles simulated: 31000  inst.: 21988917 (ipc=709.3) sim_rate=414885 (inst/sec) elapsed = 0:0:00:53 / Sat Mar  7 21:36:21 2015
GPGPU-Sim PTX: 26000000 instructions simulated : ctaid=(1,4,0) tid=(2,1,0)
GPGPU-Sim PTX: 26100000 instructions simulated : ctaid=(2,1,0) tid=(12,6,0)
GPGPU-Sim PTX: 26200000 instructions simulated : ctaid=(4,5,0) tid=(14,11,0)
GPGPU-Sim PTX: 26300000 instructions simulated : ctaid=(4,4,0) tid=(4,3,0)
GPGPU-Sim PTX: 26400000 instructions simulated : ctaid=(0,4,0) tid=(2,13,0)
GPGPU-Sim uArch: cycles simulated: 31500  inst.: 22362576 (ipc=709.9) sim_rate=414121 (inst/sec) elapsed = 0:0:00:54 / Sat Mar  7 21:36:22 2015
GPGPU-Sim PTX: 26500000 instructions simulated : ctaid=(2,3,0) tid=(8,11,0)
GPGPU-Sim PTX: 26600000 instructions simulated : ctaid=(12,0,0) tid=(9,9,0)
GPGPU-Sim PTX: 26700000 instructions simulated : ctaid=(9,1,0) tid=(15,0,0)
GPGPU-Sim PTX: 26800000 instructions simulated : ctaid=(3,3,0) tid=(9,12,0)
GPGPU-Sim uArch: cycles simulated: 32000  inst.: 22738360 (ipc=710.6) sim_rate=413424 (inst/sec) elapsed = 0:0:00:55 / Sat Mar  7 21:36:23 2015
GPGPU-Sim PTX: 26900000 instructions simulated : ctaid=(9,5,0) tid=(3,5,0)
GPGPU-Sim PTX: 27000000 instructions simulated : ctaid=(3,0,0) tid=(3,15,0)
GPGPU-Sim PTX: 27100000 instructions simulated : ctaid=(7,3,0) tid=(9,2,0)
GPGPU-Sim PTX: 27200000 instructions simulated : ctaid=(13,2,0) tid=(13,9,0)
GPGPU-Sim PTX: 27300000 instructions simulated : ctaid=(4,3,0) tid=(11,8,0)
GPGPU-Sim uArch: cycles simulated: 32500  inst.: 23113036 (ipc=711.2) sim_rate=412732 (inst/sec) elapsed = 0:0:00:56 / Sat Mar  7 21:36:24 2015
GPGPU-Sim PTX: 27400000 instructions simulated : ctaid=(9,0,0) tid=(5,13,0)
GPGPU-Sim PTX: 27500000 instructions simulated : ctaid=(13,3,0) tid=(13,7,0)
GPGPU-Sim PTX: 27600000 instructions simulated : ctaid=(3,4,0) tid=(15,7,0)
GPGPU-Sim PTX: 27700000 instructions simulated : ctaid=(4,3,0) tid=(7,14,0)
GPGPU-Sim uArch: cycles simulated: 33000  inst.: 23484264 (ipc=711.6) sim_rate=412004 (inst/sec) elapsed = 0:0:00:57 / Sat Mar  7 21:36:25 2015
GPGPU-Sim PTX: 27800000 instructions simulated : ctaid=(8,3,0) tid=(12,6,0)
GPGPU-Sim PTX: 27900000 instructions simulated : ctaid=(11,1,0) tid=(12,8,0)
GPGPU-Sim PTX: 28000000 instructions simulated : ctaid=(0,1,0) tid=(7,14,0)
GPGPU-Sim PTX: 28100000 instructions simulated : ctaid=(9,2,0) tid=(14,13,0)
GPGPU-Sim PTX: 28200000 instructions simulated : ctaid=(7,3,0) tid=(8,1,0)
GPGPU-Sim uArch: cycles simulated: 33500  inst.: 23860707 (ipc=712.3) sim_rate=411391 (inst/sec) elapsed = 0:0:00:58 / Sat Mar  7 21:36:26 2015
GPGPU-Sim PTX: 28300000 instructions simulated : ctaid=(7,2,0) tid=(12,13,0)
GPGPU-Sim PTX: 28400000 instructions simulated : ctaid=(7,2,0) tid=(14,4,0)
GPGPU-Sim PTX: 28500000 instructions simulated : ctaid=(8,0,0) tid=(12,8,0)
GPGPU-Sim PTX: 28600000 instructions simulated : ctaid=(1,3,0) tid=(2,5,0)
GPGPU-Sim uArch: cycles simulated: 34000  inst.: 24229373 (ipc=712.6) sim_rate=410667 (inst/sec) elapsed = 0:0:00:59 / Sat Mar  7 21:36:27 2015
GPGPU-Sim PTX: 28700000 instructions simulated : ctaid=(9,2,0) tid=(2,9,0)
GPGPU-Sim PTX: 28800000 instructions simulated : ctaid=(0,5,0) tid=(1,8,0)
GPGPU-Sim PTX: 28900000 instructions simulated : ctaid=(14,0,0) tid=(15,7,0)
GPGPU-Sim PTX: 29000000 instructions simulated : ctaid=(10,2,0) tid=(1,5,0)
GPGPU-Sim uArch: cycles simulated: 34500  inst.: 24605390 (ipc=713.2) sim_rate=410089 (inst/sec) elapsed = 0:0:01:00 / Sat Mar  7 21:36:28 2015
GPGPU-Sim PTX: 29100000 instructions simulated : ctaid=(5,3,0) tid=(15,6,0)
GPGPU-Sim PTX: 29200000 instructions simulated : ctaid=(9,4,0) tid=(13,1,0)
GPGPU-Sim PTX: 29300000 instructions simulated : ctaid=(11,3,0) tid=(1,3,0)
GPGPU-Sim PTX: 29400000 instructions simulated : ctaid=(9,3,0) tid=(11,11,0)
GPGPU-Sim PTX: 29500000 instructions simulated : ctaid=(1,3,0) tid=(3,7,0)
GPGPU-Sim uArch: cycles simulated: 35000  inst.: 24980478 (ipc=713.7) sim_rate=409516 (inst/sec) elapsed = 0:0:01:01 / Sat Mar  7 21:36:29 2015
GPGPU-Sim PTX: 29600000 instructions simulated : ctaid=(6,4,0) tid=(3,6,0)
GPGPU-Sim PTX: 29700000 instructions simulated : ctaid=(3,4,0) tid=(3,6,0)
GPGPU-Sim PTX: 29800000 instructions simulated : ctaid=(15,4,0) tid=(5,11,0)
GPGPU-Sim PTX: 29900000 instructions simulated : ctaid=(8,1,0) tid=(1,8,0)
GPGPU-Sim PTX: 30000000 instructions simulated : ctaid=(15,4,0) tid=(13,4,0)
GPGPU-Sim PTX: 30100000 instructions simulated : ctaid=(6,1,0) tid=(11,2,0)
GPGPU-Sim PTX: 30200000 instructions simulated : ctaid=(4,1,0) tid=(11,11,0)
GPGPU-Sim PTX: 30300000 instructions simulated : ctaid=(0,1,0) tid=(9,15,0)
GPGPU-Sim PTX: 30400000 instructions simulated : ctaid=(1,5,0) tid=(11,15,0)
GPGPU-Sim uArch: cycles simulated: 36000  inst.: 25728914 (ipc=714.7) sim_rate=414982 (inst/sec) elapsed = 0:0:01:02 / Sat Mar  7 21:36:30 2015
GPGPU-Sim PTX: 30500000 instructions simulated : ctaid=(5,2,0) tid=(1,1,0)
GPGPU-Sim PTX: 30600000 instructions simulated : ctaid=(5,2,0) tid=(7,9,0)
GPGPU-Sim PTX: 30700000 instructions simulated : ctaid=(3,2,0) tid=(5,4,0)
GPGPU-Sim PTX: 30800000 instructions simulated : ctaid=(0,0,0) tid=(11,14,0)
GPGPU-Sim uArch: cycles simulated: 36500  inst.: 26109330 (ipc=715.3) sim_rate=414433 (inst/sec) elapsed = 0:0:01:03 / Sat Mar  7 21:36:31 2015
GPGPU-Sim PTX: 30900000 instructions simulated : ctaid=(3,5,0) tid=(1,7,0)
GPGPU-Sim PTX: 31000000 instructions simulated : ctaid=(1,5,0) tid=(15,2,0)
GPGPU-Sim PTX: 31100000 instructions simulated : ctaid=(1,2,0) tid=(13,2,0)
GPGPU-Sim PTX: 31200000 instructions simulated : ctaid=(2,1,0) tid=(3,12,0)
GPGPU-Sim PTX: 31300000 instructions simulated : ctaid=(3,3,0) tid=(3,6,0)
GPGPU-Sim uArch: cycles simulated: 37000  inst.: 26483918 (ipc=715.8) sim_rate=413811 (inst/sec) elapsed = 0:0:01:04 / Sat Mar  7 21:36:32 2015
GPGPU-Sim PTX: 31400000 instructions simulated : ctaid=(2,2,0) tid=(3,6,0)
GPGPU-Sim PTX: 31500000 instructions simulated : ctaid=(7,3,0) tid=(5,8,0)
GPGPU-Sim PTX: 31600000 instructions simulated : ctaid=(14,2,0) tid=(7,1,0)
GPGPU-Sim PTX: 31700000 instructions simulated : ctaid=(0,4,0) tid=(11,1,0)
GPGPU-Sim uArch: cycles simulated: 37500  inst.: 26858988 (ipc=716.2) sim_rate=413215 (inst/sec) elapsed = 0:0:01:05 / Sat Mar  7 21:36:33 2015
GPGPU-Sim PTX: 31800000 instructions simulated : ctaid=(8,2,0) tid=(15,11,0)
GPGPU-Sim PTX: 31900000 instructions simulated : ctaid=(7,0,0) tid=(13,11,0)
GPGPU-Sim PTX: 32000000 instructions simulated : ctaid=(14,3,0) tid=(9,11,0)
GPGPU-Sim PTX: 32100000 instructions simulated : ctaid=(7,4,0) tid=(11,9,0)
GPGPU-Sim PTX: 32200000 instructions simulated : ctaid=(1,5,0) tid=(5,4,0)
GPGPU-Sim uArch: cycles simulated: 38000  inst.: 27228242 (ipc=716.5) sim_rate=412549 (inst/sec) elapsed = 0:0:01:06 / Sat Mar  7 21:36:34 2015
GPGPU-Sim PTX: 32300000 instructions simulated : ctaid=(5,1,0) tid=(7,8,0)
GPGPU-Sim PTX: 32400000 instructions simulated : ctaid=(2,2,0) tid=(7,10,0)
GPGPU-Sim PTX: 32500000 instructions simulated : ctaid=(12,2,0) tid=(3,11,0)
GPGPU-Sim PTX: 32600000 instructions simulated : ctaid=(6,1,0) tid=(3,7,0)
GPGPU-Sim uArch: cycles simulated: 38500  inst.: 27603372 (ipc=717.0) sim_rate=411990 (inst/sec) elapsed = 0:0:01:07 / Sat Mar  7 21:36:35 2015
GPGPU-Sim PTX: 32700000 instructions simulated : ctaid=(13,1,0) tid=(11,7,0)
GPGPU-Sim PTX: 32800000 instructions simulated : ctaid=(8,4,0) tid=(1,12,0)
GPGPU-Sim PTX: 32900000 instructions simulated : ctaid=(0,3,0) tid=(15,0,0)
GPGPU-Sim PTX: 33000000 instructions simulated : ctaid=(6,4,0) tid=(11,5,0)
GPGPU-Sim uArch: cycles simulated: 39000  inst.: 27970140 (ipc=717.2) sim_rate=411325 (inst/sec) elapsed = 0:0:01:08 / Sat Mar  7 21:36:36 2015
GPGPU-Sim PTX: 33100000 instructions simulated : ctaid=(9,1,0) tid=(7,1,0)
GPGPU-Sim PTX: 33200000 instructions simulated : ctaid=(8,5,0) tid=(3,12,0)
GPGPU-Sim PTX: 33300000 instructions simulated : ctaid=(0,3,0) tid=(3,0,0)
GPGPU-Sim uArch: Shader 1 finished CTA #1 (39265,0), 5 CTAs running
GPGPU-Sim uArch: core:  1, cta: 1 initialized @(39266,0)
GPGPU-Sim PTX: 33400000 instructions simulated : ctaid=(10,5,0) tid=(5,13,0)
GPGPU-Sim uArch: Shader 8 finished CTA #0 (39449,0), 5 CTAs running
GPGPU-Sim uArch: core:  8, cta: 0 initialized @(39450,0)
GPGPU-Sim PTX: 33500000 instructions simulated : ctaid=(9,2,0) tid=(13,9,0)
GPGPU-Sim uArch: cycles simulated: 39500  inst.: 28336006 (ipc=717.4) sim_rate=410666 (inst/sec) elapsed = 0:0:01:09 / Sat Mar  7 21:36:37 2015
GPGPU-Sim PTX: 33600000 instructions simulated : ctaid=(14,1,0) tid=(7,2,0)
GPGPU-Sim PTX: 33700000 instructions simulated : ctaid=(0,1,0) tid=(4,7,0)
GPGPU-Sim PTX: 33800000 instructions simulated : ctaid=(13,0,0) tid=(1,13,0)
GPGPU-Sim PTX: 33900000 instructions simulated : ctaid=(11,0,0) tid=(13,11,0)
GPGPU-Sim uArch: cycles simulated: 40000  inst.: 28705305 (ipc=717.6) sim_rate=410075 (inst/sec) elapsed = 0:0:01:10 / Sat Mar  7 21:36:38 2015
GPGPU-Sim PTX: 34000000 instructions simulated : ctaid=(10,2,0) tid=(4,1,0)
GPGPU-Sim PTX: 34100000 instructions simulated : ctaid=(4,2,0) tid=(0,3,0)
GPGPU-Sim PTX: 34200000 instructions simulated : ctaid=(13,4,0) tid=(0,1,0)
GPGPU-Sim PTX: 34300000 instructions simulated : ctaid=(10,1,0) tid=(2,6,0)
GPGPU-Sim uArch: Shader 0 finished CTA #3 (40449,0), 5 CTAs running
GPGPU-Sim uArch: core:  0, cta: 3 initialized @(40450,0)
GPGPU-Sim PTX: 34400000 instructions simulated : ctaid=(9,0,0) tid=(0,7,0)
GPGPU-Sim PTX: 34500000 instructions simulated : ctaid=(11,4,0) tid=(6,1,0)
GPGPU-Sim PTX: 34600000 instructions simulated : ctaid=(1,3,0) tid=(6,12,0)
GPGPU-Sim PTX: 34700000 instructions simulated : ctaid=(3,1,0) tid=(1,8,0)
GPGPU-Sim PTX: 34800000 instructions simulated : ctaid=(10,2,0) tid=(0,0,0)
GPGPU-Sim uArch: cycles simulated: 41000  inst.: 29448170 (ipc=718.2) sim_rate=414762 (inst/sec) elapsed = 0:0:01:11 / Sat Mar  7 21:36:39 2015
GPGPU-Sim PTX: 34900000 instructions simulated : ctaid=(12,1,0) tid=(14,8,0)
GPGPU-Sim PTX: 35000000 instructions simulated : ctaid=(13,1,0) tid=(9,11,0)
GPGPU-Sim uArch: Shader 3 finished CTA #2 (41213,0), 5 CTAs running
GPGPU-Sim uArch: core:  3, cta: 2 initialized @(41214,0)
GPGPU-Sim uArch: Shader 4 finished CTA #2 (41221,0), 5 CTAs running
GPGPU-Sim uArch: core:  4, cta: 2 initialized @(41222,0)
GPGPU-Sim uArch: Shader 3 finished CTA #1 (41243,0), 5 CTAs running
GPGPU-Sim uArch: core:  3, cta: 1 initialized @(41244,0)
GPGPU-Sim uArch: Shader 6 finished CTA #3 (41310,0), 5 CTAs running
GPGPU-Sim uArch: core:  6, cta: 3 initialized @(41311,0)
GPGPU-Sim PTX: 35100000 instructions simulated : ctaid=(11,2,0) tid=(13,0,0)
GPGPU-Sim PTX: 35200000 instructions simulated : ctaid=(9,4,0) tid=(7,9,0)
GPGPU-Sim uArch: Shader 7 finished CTA #3 (41488,0), 5 CTAs running
GPGPU-Sim uArch: core:  7, cta: 3 initialized @(41489,0)
GPGPU-Sim uArch: cycles simulated: 41500  inst.: 29815460 (ipc=718.4) sim_rate=414103 (inst/sec) elapsed = 0:0:01:12 / Sat Mar  7 21:36:40 2015
GPGPU-Sim PTX: 35300000 instructions simulated : ctaid=(8,0,0) tid=(11,8,0)
GPGPU-Sim uArch: Shader 2 finished CTA #0 (41574,0), 5 CTAs running
GPGPU-Sim uArch: core:  2, cta: 0 initialized @(41575,0)
GPGPU-Sim uArch: Shader 8 finished CTA #2 (41655,0), 5 CTAs running
GPGPU-Sim uArch: core:  8, cta: 2 initialized @(41656,0)
GPGPU-Sim PTX: 35400000 instructions simulated : ctaid=(8,3,0) tid=(9,9,0)
GPGPU-Sim uArch: Shader 9 finished CTA #3 (41721,0), 5 CTAs running
GPGPU-Sim uArch: core:  9, cta: 3 initialized @(41722,0)
GPGPU-Sim PTX: 35500000 instructions simulated : ctaid=(8,3,0) tid=(15,15,0)
GPGPU-Sim PTX: 35600000 instructions simulated : ctaid=(11,2,0) tid=(11,4,0)
GPGPU-Sim uArch: cycles simulated: 42000  inst.: 30189993 (ipc=718.8) sim_rate=413561 (inst/sec) elapsed = 0:0:01:13 / Sat Mar  7 21:36:41 2015
GPGPU-Sim PTX: 35700000 instructions simulated : ctaid=(14,4,0) tid=(1,4,0)
GPGPU-Sim PTX: 35800000 instructions simulated : ctaid=(13,2,0) tid=(9,0,0)
GPGPU-Sim uArch: Shader 13 finished CTA #0 (42207,0), 5 CTAs running
GPGPU-Sim uArch: core: 13, cta: 0 initialized @(42208,0)
GPGPU-Sim PTX: 35900000 instructions simulated : ctaid=(11,5,0) tid=(14,8,0)
GPGPU-Sim PTX: 36000000 instructions simulated : ctaid=(0,4,0) tid=(10,3,0)
GPGPU-Sim PTX: 36100000 instructions simulated : ctaid=(8,5,0) tid=(2,7,0)
GPGPU-Sim uArch: cycles simulated: 42500  inst.: 30552145 (ipc=718.9) sim_rate=412866 (inst/sec) elapsed = 0:0:01:14 / Sat Mar  7 21:36:42 2015
GPGPU-Sim PTX: 36200000 instructions simulated : ctaid=(0,1,0) tid=(9,6,0)
GPGPU-Sim PTX: 36300000 instructions simulated : ctaid=(1,6,0) tid=(14,4,0)
GPGPU-Sim uArch: Shader 8 finished CTA #3 (42772,0), 5 CTAs running
GPGPU-Sim uArch: core:  8, cta: 3 initialized @(42773,0)
GPGPU-Sim PTX: 36400000 instructions simulated : ctaid=(10,4,0) tid=(1,12,0)
GPGPU-Sim uArch: Shader 13 finished CTA #1 (42930,0), 5 CTAs running
GPGPU-Sim uArch: core: 13, cta: 1 initialized @(42931,0)
GPGPU-Sim PTX: 36500000 instructions simulated : ctaid=(2,2,0) tid=(3,13,0)
GPGPU-Sim uArch: Shader 12 finished CTA #0 (42962,0), 5 CTAs running
GPGPU-Sim uArch: core: 12, cta: 0 initialized @(42963,0)
GPGPU-Sim uArch: cycles simulated: 43000  inst.: 30898648 (ipc=718.6) sim_rate=411981 (inst/sec) elapsed = 0:0:01:15 / Sat Mar  7 21:36:43 2015
GPGPU-Sim PTX: 36600000 instructions simulated : ctaid=(12,1,0) tid=(1,9,0)
GPGPU-Sim uArch: Shader 10 finished CTA #2 (43089,0), 5 CTAs running
GPGPU-Sim uArch: core: 10, cta: 2 initialized @(43090,0)
GPGPU-Sim uArch: Shader 12 finished CTA #1 (43121,0), 5 CTAs running
GPGPU-Sim uArch: core: 12, cta: 1 initialized @(43122,0)
GPGPU-Sim uArch: Shader 7 finished CTA #1 (43145,0), 5 CTAs running
GPGPU-Sim uArch: core:  7, cta: 1 initialized @(43146,0)
GPGPU-Sim uArch: Shader 1 finished CTA #0 (43168,0), 5 CTAs running
GPGPU-Sim uArch: core:  1, cta: 0 initialized @(43169,0)
GPGPU-Sim PTX: 36700000 instructions simulated : ctaid=(12,1,0) tid=(5,2,0)
GPGPU-Sim uArch: Shader 7 finished CTA #2 (43253,0), 5 CTAs running
GPGPU-Sim uArch: core:  7, cta: 2 initialized @(43254,0)
GPGPU-Sim uArch: Shader 14 finished CTA #3 (43281,0), 5 CTAs running
GPGPU-Sim uArch: core: 14, cta: 3 initialized @(43282,0)
GPGPU-Sim PTX: 36800000 instructions simulated : ctaid=(11,5,0) tid=(3,6,0)
GPGPU-Sim PTX: 36900000 instructions simulated : ctaid=(12,6,0) tid=(3,4,0)
GPGPU-Sim uArch: cycles simulated: 43500  inst.: 31268646 (ipc=718.8) sim_rate=411429 (inst/sec) elapsed = 0:0:01:16 / Sat Mar  7 21:36:44 2015
GPGPU-Sim PTX: 37000000 instructions simulated : ctaid=(3,6,0) tid=(7,1,0)
GPGPU-Sim PTX: 37100000 instructions simulated : ctaid=(12,1,0) tid=(13,5,0)
GPGPU-Sim uArch: Shader 9 finished CTA #0 (43711,0), 5 CTAs running
GPGPU-Sim uArch: core:  9, cta: 0 initialized @(43712,0)
GPGPU-Sim uArch: Shader 7 finished CTA #0 (43726,0), 5 CTAs running
GPGPU-Sim uArch: core:  7, cta: 0 initialized @(43727,0)
GPGPU-Sim PTX: 37200000 instructions simulated : ctaid=(12,1,0) tid=(3,1,0)
GPGPU-Sim uArch: Shader 5 finished CTA #3 (43783,0), 5 CTAs running
GPGPU-Sim uArch: core:  5, cta: 3 initialized @(43784,0)
GPGPU-Sim uArch: Shader 2 finished CTA #2 (43810,0), 5 CTAs running
GPGPU-Sim uArch: core:  2, cta: 2 initialized @(43811,0)
GPGPU-Sim PTX: 37300000 instructions simulated : ctaid=(3,6,0) tid=(9,9,0)
GPGPU-Sim uArch: Shader 14 finished CTA #0 (43887,0), 5 CTAs running
GPGPU-Sim uArch: core: 14, cta: 0 initialized @(43888,0)
GPGPU-Sim uArch: cycles simulated: 44000  inst.: 31635362 (ipc=719.0) sim_rate=410848 (inst/sec) elapsed = 0:0:01:17 / Sat Mar  7 21:36:45 2015
GPGPU-Sim PTX: 37400000 instructions simulated : ctaid=(8,4,0) tid=(11,4,0)
GPGPU-Sim uArch: Shader 11 finished CTA #2 (44095,0), 5 CTAs running
GPGPU-Sim uArch: core: 11, cta: 2 initialized @(44096,0)
GPGPU-Sim PTX: 37500000 instructions simulated : ctaid=(7,3,0) tid=(1,6,0)
GPGPU-Sim uArch: Shader 14 finished CTA #2 (44187,0), 5 CTAs running
GPGPU-Sim uArch: core: 14, cta: 2 initialized @(44188,0)
GPGPU-Sim PTX: 37600000 instructions simulated : ctaid=(2,6,0) tid=(3,15,0)
GPGPU-Sim uArch: Shader 9 finished CTA #2 (44291,0), 5 CTAs running
GPGPU-Sim uArch: core:  9, cta: 2 initialized @(44292,0)
GPGPU-Sim uArch: Shader 5 finished CTA #2 (44334,0), 5 CTAs running
GPGPU-Sim uArch: core:  5, cta: 2 initialized @(44335,0)
GPGPU-Sim PTX: 37700000 instructions simulated : ctaid=(9,4,0) tid=(7,8,0)
GPGPU-Sim PTX: 37800000 instructions simulated : ctaid=(11,4,0) tid=(9,12,0)
GPGPU-Sim PTX: 37900000 instructions simulated : ctaid=(7,5,0) tid=(9,8,0)
GPGPU-Sim uArch: Shader 6 finished CTA #2 (44676,0), 5 CTAs running
GPGPU-Sim uArch: core:  6, cta: 2 initialized @(44677,0)
GPGPU-Sim uArch: Shader 9 finished CTA #1 (44680,0), 5 CTAs running
GPGPU-Sim uArch: core:  9, cta: 1 initialized @(44681,0)
GPGPU-Sim PTX: 38000000 instructions simulated : ctaid=(15,3,0) tid=(15,8,0)
GPGPU-Sim uArch: Shader 4 finished CTA #3 (44735,0), 5 CTAs running
GPGPU-Sim uArch: core:  4, cta: 3 initialized @(44736,0)
GPGPU-Sim uArch: Shader 10 finished CTA #0 (44753,0), 5 CTAs running
GPGPU-Sim uArch: core: 10, cta: 0 initialized @(44754,0)
GPGPU-Sim PTX: 38100000 instructions simulated : ctaid=(6,3,0) tid=(11,15,0)
GPGPU-Sim uArch: Shader 4 finished CTA #1 (44898,0), 5 CTAs running
GPGPU-Sim uArch: core:  4, cta: 1 initialized @(44899,0)
GPGPU-Sim uArch: Shader 11 finished CTA #1 (44899,0), 5 CTAs running
GPGPU-Sim uArch: core: 11, cta: 1 initialized @(44900,0)
GPGPU-Sim PTX: 38200000 instructions simulated : ctaid=(11,6,0) tid=(9,15,0)
GPGPU-Sim uArch: Shader 6 finished CTA #0 (44949,0), 5 CTAs running
GPGPU-Sim uArch: core:  6, cta: 0 initialized @(44950,0)
GPGPU-Sim uArch: cycles simulated: 45000  inst.: 32355894 (ipc=719.0) sim_rate=414819 (inst/sec) elapsed = 0:0:01:18 / Sat Mar  7 21:36:46 2015
GPGPU-Sim uArch: Shader 3 finished CTA #3 (45057,0), 5 CTAs running
GPGPU-Sim uArch: core:  3, cta: 3 initialized @(45058,0)
GPGPU-Sim PTX: 38300000 instructions simulated : ctaid=(10,7,0) tid=(5,13,0)
GPGPU-Sim uArch: Shader 1 finished CTA #3 (45071,0), 5 CTAs running
GPGPU-Sim uArch: core:  1, cta: 3 initialized @(45072,0)
GPGPU-Sim uArch: Shader 3 finished CTA #0 (45113,0), 5 CTAs running
GPGPU-Sim uArch: core:  3, cta: 0 initialized @(45114,0)
GPGPU-Sim uArch: Shader 0 finished CTA #1 (45114,0), 5 CTAs running
GPGPU-Sim uArch: core:  0, cta: 1 initialized @(45115,0)
GPGPU-Sim uArch: Shader 0 finished CTA #2 (45158,0), 5 CTAs running
GPGPU-Sim uArch: core:  0, cta: 2 initialized @(45159,0)
GPGPU-Sim PTX: 38400000 instructions simulated : ctaid=(15,7,0) tid=(1,3,0)
GPGPU-Sim PTX: 38500000 instructions simulated : ctaid=(1,5,0) tid=(7,15,0)
GPGPU-Sim uArch: Shader 12 finished CTA #4 (45343,0), 5 CTAs running
GPGPU-Sim uArch: core: 12, cta: 4 initialized @(45344,0)
GPGPU-Sim uArch: Shader 10 finished CTA #1 (45376,0), 5 CTAs running
GPGPU-Sim uArch: core: 10, cta: 1 initialized @(45377,0)
GPGPU-Sim uArch: Shader 14 finished CTA #1 (45411,0), 5 CTAs running
GPGPU-Sim uArch: core: 14, cta: 1 initialized @(45412,0)
GPGPU-Sim PTX: 38600000 instructions simulated : ctaid=(9,2,0) tid=(5,14,0)
GPGPU-Sim uArch: Shader 8 finished CTA #1 (45435,0), 5 CTAs running
GPGPU-Sim uArch: core:  8, cta: 1 initialized @(45436,0)
GPGPU-Sim uArch: cycles simulated: 45500  inst.: 32719988 (ipc=719.1) sim_rate=414177 (inst/sec) elapsed = 0:0:01:19 / Sat Mar  7 21:36:47 2015
GPGPU-Sim PTX: 38700000 instructions simulated : ctaid=(7,8,0) tid=(13,7,0)
GPGPU-Sim uArch: Shader 0 finished CTA #0 (45538,0), 5 CTAs running
GPGPU-Sim uArch: core:  0, cta: 0 initialized @(45539,0)
GPGPU-Sim PTX: 38800000 instructions simulated : ctaid=(11,5,0) tid=(11,11,0)
GPGPU-Sim uArch: Shader 2 finished CTA #4 (45678,0), 5 CTAs running
GPGPU-Sim uArch: core:  2, cta: 4 initialized @(45679,0)
GPGPU-Sim uArch: Shader 10 finished CTA #4 (45751,0), 5 CTAs running
GPGPU-Sim uArch: core: 10, cta: 4 initialized @(45752,0)
GPGPU-Sim PTX: 38900000 instructions simulated : ctaid=(14,2,0) tid=(9,4,0)
GPGPU-Sim PTX: 39000000 instructions simulated : ctaid=(7,5,0) tid=(7,8,0)
GPGPU-Sim uArch: Shader 13 finished CTA #3 (45870,0), 5 CTAs running
GPGPU-Sim uArch: core: 13, cta: 3 initialized @(45871,0)
GPGPU-Sim uArch: Shader 12 finished CTA #2 (45880,0), 5 CTAs running
GPGPU-Sim uArch: core: 12, cta: 2 initialized @(45881,0)
GPGPU-Sim PTX: 39100000 instructions simulated : ctaid=(7,7,0) tid=(1,4,0)
GPGPU-Sim uArch: Shader 4 finished CTA #0 (45991,0), 5 CTAs running
GPGPU-Sim uArch: core:  4, cta: 0 initialized @(45992,0)
GPGPU-Sim uArch: cycles simulated: 46000  inst.: 33094156 (ipc=719.4) sim_rate=413676 (inst/sec) elapsed = 0:0:01:20 / Sat Mar  7 21:36:48 2015
GPGPU-Sim uArch: Shader 12 finished CTA #3 (46010,0), 5 CTAs running
GPGPU-Sim uArch: core: 12, cta: 3 initialized @(46011,0)
GPGPU-Sim uArch: Shader 2 finished CTA #1 (46019,0), 5 CTAs running
GPGPU-Sim uArch: core:  2, cta: 1 initialized @(46020,0)
GPGPU-Sim PTX: 39200000 instructions simulated : ctaid=(8,5,0) tid=(1,4,0)
GPGPU-Sim uArch: Shader 1 finished CTA #4 (46198,0), 5 CTAs running
GPGPU-Sim uArch: core:  1, cta: 4 initialized @(46199,0)
GPGPU-Sim PTX: 39300000 instructions simulated : ctaid=(2,5,0) tid=(3,12,0)
GPGPU-Sim uArch: Shader 1 finished CTA #2 (46246,0), 5 CTAs running
GPGPU-Sim uArch: core:  1, cta: 2 initialized @(46247,0)
GPGPU-Sim uArch: Shader 5 finished CTA #1 (46304,0), 5 CTAs running
GPGPU-Sim uArch: core:  5, cta: 1 initialized @(46305,0)
GPGPU-Sim uArch: Shader 11 finished CTA #4 (46308,0), 5 CTAs running
GPGPU-Sim uArch: core: 11, cta: 4 initialized @(46309,0)
GPGPU-Sim PTX: 39400000 instructions simulated : ctaid=(0,4,0) tid=(7,6,0)
GPGPU-Sim uArch: Shader 14 finished CTA #4 (46352,0), 5 CTAs running
GPGPU-Sim uArch: core: 14, cta: 4 initialized @(46353,0)
GPGPU-Sim PTX: 39500000 instructions simulated : ctaid=(14,3,0) tid=(3,1,0)
GPGPU-Sim uArch: cycles simulated: 46500  inst.: 33462996 (ipc=719.6) sim_rate=413123 (inst/sec) elapsed = 0:0:01:21 / Sat Mar  7 21:36:49 2015
GPGPU-Sim uArch: Shader 6 finished CTA #1 (46543,0), 5 CTAs running
GPGPU-Sim uArch: core:  6, cta: 1 initialized @(46544,0)
GPGPU-Sim PTX: 39600000 instructions simulated : ctaid=(12,6,0) tid=(3,8,0)
GPGPU-Sim PTX: 39700000 instructions simulated : ctaid=(15,4,0) tid=(7,13,0)
GPGPU-Sim PTX: 39800000 instructions simulated : ctaid=(7,5,0) tid=(11,4,0)
GPGPU-Sim uArch: Shader 6 finished CTA #4 (46804,0), 5 CTAs running
GPGPU-Sim uArch: core:  6, cta: 4 initialized @(46805,0)
GPGPU-Sim uArch: Shader 11 finished CTA #3 (46873,0), 5 CTAs running
GPGPU-Sim uArch: core: 11, cta: 3 initialized @(46874,0)
GPGPU-Sim uArch: Shader 11 finished CTA #0 (46886,0), 5 CTAs running
GPGPU-Sim uArch: core: 11, cta: 0 initialized @(46887,0)
GPGPU-Sim PTX: 39900000 instructions simulated : ctaid=(7,6,0) tid=(11,2,0)
GPGPU-Sim uArch: cycles simulated: 47000  inst.: 33839058 (ipc=720.0) sim_rate=412671 (inst/sec) elapsed = 0:0:01:22 / Sat Mar  7 21:36:50 2015
GPGPU-Sim PTX: 40000000 instructions simulated : ctaid=(3,9,0) tid=(15,15,0)
GPGPU-Sim uArch: Shader 10 finished CTA #3 (47036,0), 5 CTAs running
GPGPU-Sim uArch: core: 10, cta: 3 initialized @(47037,0)
GPGPU-Sim uArch: Shader 5 finished CTA #0 (47065,0), 5 CTAs running
GPGPU-Sim uArch: core:  5, cta: 0 initialized @(47066,0)
GPGPU-Sim PTX: 40100000 instructions simulated : ctaid=(5,8,0) tid=(7,6,0)
GPGPU-Sim PTX: 40200000 instructions simulated : ctaid=(11,7,0) tid=(9,2,0)
GPGPU-Sim uArch: Shader 13 finished CTA #4 (47294,0), 5 CTAs running
GPGPU-Sim uArch: core: 13, cta: 4 initialized @(47295,0)
GPGPU-Sim PTX: 40300000 instructions simulated : ctaid=(2,4,0) tid=(13,15,0)
GPGPU-Sim uArch: Shader 2 finished CTA #3 (47396,0), 5 CTAs running
GPGPU-Sim uArch: core:  2, cta: 3 initialized @(47397,0)
GPGPU-Sim PTX: 40400000 instructions simulated : ctaid=(6,8,0) tid=(5,0,0)
GPGPU-Sim uArch: cycles simulated: 47500  inst.: 34210424 (ipc=720.2) sim_rate=412173 (inst/sec) elapsed = 0:0:01:23 / Sat Mar  7 21:36:51 2015
GPGPU-Sim uArch: Shader 13 finished CTA #2 (47517,0), 5 CTAs running
GPGPU-Sim uArch: core: 13, cta: 2 initialized @(47518,0)
GPGPU-Sim PTX: 40500000 instructions simulated : ctaid=(8,9,0) tid=(1,3,0)
GPGPU-Sim PTX: 40600000 instructions simulated : ctaid=(3,9,0) tid=(15,3,0)
GPGPU-Sim PTX: 40700000 instructions simulated : ctaid=(11,4,0) tid=(11,14,0)
GPGPU-Sim PTX: 40800000 instructions simulated : ctaid=(15,5,0) tid=(7,2,0)
GPGPU-Sim uArch: cycles simulated: 48000  inst.: 34578576 (ipc=720.4) sim_rate=411649 (inst/sec) elapsed = 0:0:01:24 / Sat Mar  7 21:36:52 2015
GPGPU-Sim PTX: 40900000 instructions simulated : ctaid=(9,9,0) tid=(15,15,0)
GPGPU-Sim PTX: 41000000 instructions simulated : ctaid=(11,4,0) tid=(13,9,0)
GPGPU-Sim PTX: 41100000 instructions simulated : ctaid=(13,5,0) tid=(5,0,0)
GPGPU-Sim PTX: 41200000 instructions simulated : ctaid=(9,5,0) tid=(13,14,0)
GPGPU-Sim uArch: cycles simulated: 48500  inst.: 34939202 (ipc=720.4) sim_rate=411049 (inst/sec) elapsed = 0:0:01:25 / Sat Mar  7 21:36:53 2015
GPGPU-Sim PTX: 41300000 instructions simulated : ctaid=(15,8,0) tid=(7,7,0)
GPGPU-Sim PTX: 41400000 instructions simulated : ctaid=(11,7,0) tid=(7,7,0)
GPGPU-Sim PTX: 41500000 instructions simulated : ctaid=(0,6,0) tid=(13,1,0)
GPGPU-Sim uArch: Shader 5 finished CTA #4 (48780,0), 5 CTAs running
GPGPU-Sim uArch: core:  5, cta: 4 initialized @(48781,0)
GPGPU-Sim uArch: Shader 4 finished CTA #4 (48865,0), 5 CTAs running
GPGPU-Sim uArch: core:  4, cta: 4 initialized @(48866,0)
GPGPU-Sim PTX: 41600000 instructions simulated : ctaid=(4,6,0) tid=(7,5,0)
GPGPU-Sim PTX: 41700000 instructions simulated : ctaid=(10,6,0) tid=(9,7,0)
GPGPU-Sim uArch: cycles simulated: 49000  inst.: 35298406 (ipc=720.4) sim_rate=410446 (inst/sec) elapsed = 0:0:01:26 / Sat Mar  7 21:36:54 2015
GPGPU-Sim PTX: 41800000 instructions simulated : ctaid=(11,5,0) tid=(1,10,0)
GPGPU-Sim PTX: 41900000 instructions simulated : ctaid=(11,8,0) tid=(9,2,0)
GPGPU-Sim PTX: 42000000 instructions simulated : ctaid=(10,8,0) tid=(13,14,0)
GPGPU-Sim PTX: 42100000 instructions simulated : ctaid=(9,6,0) tid=(9,3,0)
[...]
gpgpu_stall_shd_mem[l_mem_ld][wb_rsrv_fail] = 0
gpu_reg_bank_conflict_stalls = 0
Warp Occupancy Distribution:
Stall:227516	W0_Idle:55187	W0_Scoreboard:238489	W1:0	W2:0	W3:0	W4:0	W5:0	W6:0	W7:0	W8:0	W9:60	W10:60	W11:60	W12:60	W13:60	W14:60	W15:60	W16:10844	W17:0	W18:15120	W19:0	W20:15120	W21:0	W22:15120	W23:0	W24:15120	W25:0	W26:15120	W27:0	W28:15120	W29:0	W30:15120	W31:0	W32:3478160
traffic_breakdown_coretomem[CONST_ACC_R] = 120 {8:15,}
traffic_breakdown_coretomem[GLOBAL_ACC_R] = 1009512 {8:126189,}
traffic_breakdown_coretomem[GLOBAL_ACC_W] = 294912 {72:4096,}
traffic_breakdown_coretomem[INST_ACC_R] = 600 {8:75,}
traffic_breakdown_memtocore[CONST_ACC_R] = 1080 {72:15,}
traffic_breakdown_memtocore[GLOBAL_ACC_R] = 17161704 {136:126189,}
traffic_breakdown_memtocore[GLOBAL_ACC_W] = 32768 {8:4096,}
traffic_breakdown_memtocore[INST_ACC_R] = 10200 {136:75,}
maxmrqlatency = 134 
maxdqlatency = 0 
maxmflatency = 583 
averagemflatency = 188 
max_icnt2mem_latency = 239 
max_icnt2sh_latency = 145899 
mrq_lat_table:5464 	136 	177 	234 	81 	73 	48 	4 	0 	0 	0 	0 	0 	0 	0 	0 	0 	0 	0 	0 	0 	0 	0 	0 	0 	0 	0 	0 	0 	0 	0 	0 	
dq_lat_table:0 	0 	0 	0 	0 	0 	0 	0 	0 	0 	0 	0 	0 	0 	0 	0 	0 	0 	0 	0 	0 	0 	0 	0 	0 	0 	0 	0 	0 	0 	0 	0 	
mf_lat_table:0 	0 	0 	0 	0 	0 	0 	116902 	13337 	61 	0 	0 	0 	0 	0 	0 	0 	0 	0 	0 	0 	0 	0 	0 	0 	0 	0 	0 	0 	0 	0 	0 	
icnt2mem_lat_table:0 	0 	0 	124491 	4696 	645 	386 	157 	0 	0 	0 	0 	0 	0 	0 	0 	0 	0 	0 	0 	0 	0 	0 	0 	
icnt2sh_lat_table:0 	0 	0 	19973 	66482 	37517 	2231 	1 	0 	0 	0 	0 	0 	2 	66 	1372 	2232 	424 	0 	0 	0 	0 	0 	0 	
mf_lat_pw_table:0 	0 	0 	0 	0 	0 	0 	282 	4 	0 	0 	0 	0 	0 	0 	0 	0 	0 	0 	0 	0 	0 	0 	0 	0 	0 	0 	0 	0 	0 	0 	0 	
maximum concurrent accesses to same row:
dram[0]:         1         0         0         0        10        10        32        32        32        32        32        32         0         0         0         0 
dram[1]:         2         0         0         0        10        10        32        32        32        32        32        32         0         0         0         0 
dram[2]:         2         0         0         0        10        12        32        32        32        32        32        32         0         0         0         0 
dram[3]:         0         0         0         0        10        12        32        32        32        32        32        32         0         0         0         0 
dram[4]:         0         0         0         0        10        12        32        32        32        32        32        32         0         0         0         0 
dram[5]:         0         0         0         0        10        12        32        32        32        32        32        32         0         0         0         0 
maximum service time to same row:
dram[0]:      1120     14324     39412     39460     72924     72976     84892     84728    116582    111087     86304     84990     51232     57310     87754     89779 
dram[1]:     17361     18060     38999     39269     65229     71933     73095     84747    113530    116990     79817     83386     55168     59460     88943     90682 
dram[2]:     14328     19050     39638     42250     73390     74354     84728     86100    111067    118497     85535     86278     57318     51234     89782     87907 
dram[3]:     18065     26103     39274     39846     70256     67171     82958     72306    116020    114244     83326     79425     59454     55213     90684     88944 
dram[4]:     19054     23269     41904     39457     74356     72974     85253     85413    118584    113468     86278     84832     51275     57327     87753     89810 
dram[5]:     18903     25360     38994     39354     65217     70257     72313     82951    113523    115987     79484     83328     55168     59456     88947     90807 
average row accesses per activate:
dram[0]: 16.750000 64.000000 65.000000 66.000000 38.000000 37.000000 49.500000 48.000000 48.000000 48.000000 28.500000 26.000000 32.000000 32.000000 32.000000 32.000000 
dram[1]: 33.500000 67.000000 65.000000 64.000000 37.000000 37.000000 48.000000 48.500000 49.000000 50.000000 28.000000 26.000000 32.000000 32.000000 32.000000 32.000000 
dram[2]: 21.666667 67.000000 65.000000 64.000000 38.000000 38.500000 48.000000 49.500000 48.000000 48.000000 28.000000 26.000000 32.000000 32.000000 32.000000 32.000000 
dram[3]: 66.000000 64.000000 66.000000 64.000000 37.000000 38.500000 48.500000 48.000000 49.500000 49.000000 28.000000 26.000000 32.000000 32.000000 32.000000 32.000000 
dram[4]: 67.000000 64.000000 65.000000 65.000000 37.500000 39.000000 50.000000 48.000000 48.000000 48.000000 28.500000 26.000000 32.000000 32.000000 32.000000 32.000000 
dram[5]: 65.000000 65.000000 65.000000 66.000000 37.000000 38.000000 48.000000 48.000000 48.000000 49.500000 26.000000 26.000000 32.000000 32.000000 32.000000 32.000000 
average row locality = 6217/150 = 41.446667
number of total memory accesses made:
dram[0]:         0         0         0         0         0         0         0         0         0         0         0         0         0         0         0         0 
dram[1]:         0         0         0         0         0         0         0         0         0         0         0         0         0         0         0         0 
dram[2]:         0         0         0         0         0         0         0         0         0         0         0         0         0         0         0         0 
dram[3]:         0         0         0         0         0         0         0         0         0         0         0         0         0         0         0         0 
dram[4]:         0         0         0         0         0         0         0         0         0         0         0         0         0         0         0         0 
dram[5]:         0         0         0         0         0         0         0         0         0         0         0         0         0         0         0         0 
total accesses: 0
min_bank_accesses = 0!
min_chip_accesses = 0!
number of total read accesses:
dram[0]:        35        32        32        32        42        42        64        64        64        64        44        42        32        32        32        32 
dram[1]:        34        32        32        32        42        42        64        64        64        64        44        42        32        32        32        32 
dram[2]:        33        32        32        32        42        44        64        64        64        64        44        42        32        32        32        32 
dram[3]:        32        32        32        32        42        44        64        64        64        64        44        42        32        32        32        32 
dram[4]:        32        32        32        32        42        44        64        64        64        64        44        42        32        32        32        32 
dram[5]:        32        32        32        32        42        44        64        64        64        64        42        42        32        32        32        32 
total reads: 4104
bank skew: 64/32 = 2.00
chip skew: 685/682 = 1.00
number of total write accesses:
dram[0]:        32        32        33        34        34        32        35        32        32        32        13        10         0         0         0         0 
dram[1]:        33        35        33        32        32        32        32        33        34        36        12        10         0         0         0         0 
dram[2]:        32        35        33        32        34        33        32        35        32        32        12        10         0         0         0         0 
dram[3]:        34        32        34        32        32        33        33        32        35        34        12        10         0         0         0         0 
dram[4]:        35        32        33        33        33        34        36        32        32        32        13        10         0         0         0         0 
dram[5]:        33        33        33        34        32        32        32        32        32        35        10        10         0         0         0         0 
total reads: 2113
min_bank_accesses = 0!
chip skew: 355/348 = 1.02
average mf latency per bank:
dram[0]:       2985       232       265       229      2170      2368      1712      2528      6261      4715      6853      7387     17359     11564      8680      8662
dram[1]:        208       228       226       232      2233      1622      3890      3767      3623      2968      8579     10561     12109     10996     11470      8284
dram[2]:        232       214       230       252      2189      2705      2238      1551      4940      5880      6633      6888     11222     15527      9037      7804
dram[3]:        210       215       220       232      1677      2557      3908      3748      2886      4069      9023      9270     10647     10894      8431     10880
dram[4]:        210       232       232       230      2116      2515      1444      2288      5723      4984      5806      7992     16548     11718      8512      9220
dram[5]:        207       225       216       233      2111      1877      3326      4119      3977      3042      8480      9814     10851     11266     11183      7789
maximum mf latency per bank:
dram[0]:        408       363       501       361       487       395       536       513       454       455       422       351       431       408       405       362
dram[1]:        327       480       375       463       393       444       558       501       459       483       371       458       403       452       442       411
dram[2]:        328       303       352       415       392       476       518       583       479       525       400       405       431       427       310       347
dram[3]:        364       310       344       412       500       425       540       553       426       465       452       460       442       400       379       383
dram[4]:        315       343       369       361       428       412       528       541       448       437       425       455       437       452       358       357
dram[5]:        307       419       361       402       455       423       527       526       405       408       367       363       372       429       350       340

Number of Memory Banks Accessed per Memory Operation per Warp (from 0):
0	0	0	0	0	0	0	0	0	0	0	0	0	0	0	0	0	0	0	0	0	0	0	0	0	0	0	0	0	0	0	0	0	0	0	0	0	0	0	0	0	0	0	0	0	0	0	0	0	0	0	0	0	0	0	0	0	0	0	0	0	0	0	0	0	0	0	0	0	0	0	0	0	0	0	0	0	0	0	0	0	0	0	0	0	0	0	0	0	0	0	0	0	0	0	0	
Average # of Memory Banks Accessed per Memory Operation per Warp=-nan

position of mrq chosen
0	0	0	0	0	0	0	0	0	0	0	0	0	0	0	0	

average position of mrq chosen = -nan
Memory Partition 0: 
Cache L2_bank_000:
MSHR contents

Cache L2_bank_001:
MSHR contents

In Dram Latency Queue (total = 0): 
DRAM[0]: 16 bks, busW=4 BL=8 CL=12, tRRD=2 tCCD=6, tRCD=12 tRAS=28 tRP=12 tRC=40
n_cmd=192587 n_nop=190828 n_act=27 n_pre=11 n_req=1036 n_rd=1370 n_write=351 bw_util=0.01787
n_activity=13304 dram_eff=0.2587
bk0: 70a 191978i bk1: 64a 192027i bk2: 64a 192040i bk3: 64a 192072i bk4: 84a 192007i bk5: 84a 191998i bk6: 128a 191780i bk7: 128a 191806i bk8: 128a 191929i bk9: 128a 191879i bk10: 88a 192225i bk11: 84a 192269i bk12: 64a 192443i bk13: 64a 192433i bk14: 64a 192438i bk15: 64a 192430i 
dram_util_bins: 0 0 0 0 0 0 0 0 0 0
dram_eff_bins: 0 0 0 0 0 0 0 0 0 0
mrqq: max=14 avg=0.0150789
Memory Partition 1: 
Cache L2_bank_002:
MSHR contents

Cache L2_bank_003:
MSHR contents

In Dram Latency Queue (total = 0): 
DRAM[1]: 16 bks, busW=4 BL=8 CL=12, tRRD=2 tCCD=6, tRCD=12 tRAS=28 tRP=12 tRC=40
n_cmd=192587 n_nop=190831 n_act=25 n_pre=9 n_req=1038 n_rd=1368 n_write=354 bw_util=0.01788
n_activity=13313 dram_eff=0.2587
bk0: 68a 192009i bk1: 64a 192018i bk2: 64a 191992i bk3: 64a 192039i bk4: 84a 191997i bk5: 84a 191954i bk6: 128a 191840i bk7: 128a 191777i bk8: 128a 191864i bk9: 128a 191850i bk10: 88a 192208i bk11: 84a 192272i bk12: 64a 192428i bk13: 64a 192443i bk14: 64a 192436i bk15: 64a 192418i 
dram_util_bins: 0 0 0 0 0 0 0 0 0 0
dram_eff_bins: 0 0 0 0 0 0 0 0 0 0
mrqq: max=13 avg=0.0130538
Memory Partition 2: 
Cache L2_bank_004:
MSHR contents

Cache L2_bank_005:
MSHR contents

In Dram Latency Queue (total = 0): 
DRAM[2]: 16 bks, busW=4 BL=8 CL=12, tRRD=2 tCCD=6, tRCD=12 tRAS=28 tRP=12 tRC=40
n_cmd=192587 n_nop=190829 n_act=26 n_pre=10 n_req=1037 n_rd=1370 n_write=352 bw_util=0.01788
n_activity=13106 dram_eff=0.2628
bk0: 66a 191956i bk1: 64a 192024i bk2: 64a 192016i bk3: 64a 192055i bk4: 84a 191997i bk5: 88a 191951i bk6: 128a 191812i bk7: 128a 191624i bk8: 128a 191875i bk9: 128a 191882i bk10: 88a 192243i bk11: 84a 192247i bk12: 64a 192433i bk13: 64a 192444i bk14: 64a 192434i bk15: 64a 192446i 
dram_util_bins: 0 0 0 0 0 0 0 0 0 0
dram_eff_bins: 0 0 0 0 0 0 0 0 0 0
mrqq: max=16 avg=0.0183294
Memory Partition 3: 
Cache L2_bank_006:
MSHR contents

Cache L2_bank_007:
MSHR contents

In Dram Latency Queue (total = 0): 
DRAM[3]: 16 bks, busW=4 BL=8 CL=12, tRRD=2 tCCD=6, tRCD=12 tRAS=28 tRP=12 tRC=40
n_cmd=192587 n_nop=190834 n_act=24 n_pre=8 n_req=1037 n_rd=1368 n_write=353 bw_util=0.01787
n_activity=13131 dram_eff=0.2621
bk0: 64a 191989i bk1: 64a 191980i bk2: 64a 192022i bk3: 64a 192006i bk4: 84a 192011i bk5: 88a 191939i bk6: 128a 191813i bk7: 128a 191737i bk8: 128a 191879i bk9: 128a 191886i bk10: 88a 192243i bk11: 84a 192256i bk12: 64a 192437i bk13: 64a 192437i bk14: 64a 192442i bk15: 64a 192430i 
dram_util_bins: 0 0 0 0 0 0 0 0 0 0
dram_eff_bins: 0 0 0 0 0 0 0 0 0 0
mrqq: max=14 avg=0.0154787
Memory Partition 4: 
Cache L2_bank_008:
MSHR contents

Cache L2_bank_009:
MSHR contents

In Dram Latency Queue (total = 0): 
DRAM[4]: 16 bks, busW=4 BL=8 CL=12, tRRD=2 tCCD=6, tRCD=12 tRAS=28 tRP=12 tRC=40
n_cmd=192587 n_nop=190832 n_act=24 n_pre=8 n_req=1039 n_rd=1368 n_write=355 bw_util=0.01789
n_activity=12994 dram_eff=0.2652
bk0: 64a 191991i bk1: 64a 192048i bk2: 64a 192078i bk3: 64a 192043i bk4: 84a 191990i bk5: 88a 191968i bk6: 128a 191782i bk7: 128a 191735i bk8: 128a 191878i bk9: 128a 191855i bk10: 88a 192225i bk11: 84a 192265i bk12: 64a 192437i bk13: 64a 192417i bk14: 64a 192438i bk15: 64a 192444i 
dram_util_bins: 0 0 0 0 0 0 0 0 0 0
dram_eff_bins: 0 0 0 0 0 0 0 0 0 0
mrqq: max=15 avg=0.0160551
Memory Partition 5: 
Cache L2_bank_010:
MSHR contents

Cache L2_bank_011:
MSHR contents

In Dram Latency Queue (total = 0): 
DRAM[5]: 16 bks, busW=4 BL=8 CL=12, tRRD=2 tCCD=6, tRCD=12 tRAS=28 tRP=12 tRC=40
n_cmd=192587 n_nop=190843 n_act=24 n_pre=8 n_req=1030 n_rd=1364 n_write=348 bw_util=0.01778
n_activity=13178 dram_eff=0.2598
bk0: 64a 192047i bk1: 64a 192025i bk2: 64a 192017i bk3: 64a 192038i bk4: 84a 192020i bk5: 88a 191961i bk6: 128a 191815i bk7: 128a 191684i bk8: 128a 191902i bk9: 128a 191899i bk10: 84a 192232i bk11: 84a 192268i bk12: 64a 192434i bk13: 64a 192437i bk14: 64a 192441i bk15: 64a 192446i 
dram_util_bins: 0 0 0 0 0 0 0 0 0 0
dram_eff_bins: 0 0 0 0 0 0 0 0 0 0
mrqq: max=14 avg=0.0126125

========= L2 cache stats =========
L2_cache_bank[0]: Access = 11730, Miss = 345, Miss_rate = 0.029, Pending_hits = 81, Reservation_fails = 444
L2_cache_bank[1]: Access = 10708, Miss = 340, Miss_rate = 0.032, Pending_hits = 52, Reservation_fails = 0
L2_cache_bank[2]: Access = 11300, Miss = 344, Miss_rate = 0.030, Pending_hits = 71, Reservation_fails = 183
L2_cache_bank[3]: Access = 10480, Miss = 340, Miss_rate = 0.032, Pending_hits = 64, Reservation_fails = 0
L2_cache_bank[4]: Access = 10518, Miss = 343, Miss_rate = 0.033, Pending_hits = 54, Reservation_fails = 0
L2_cache_bank[5]: Access = 10707, Miss = 342, Miss_rate = 0.032, Pending_hits = 66, Reservation_fails = 0
L2_cache_bank[6]: Access = 10530, Miss = 342, Miss_rate = 0.032, Pending_hits = 72, Reservation_fails = 0
L2_cache_bank[7]: Access = 11433, Miss = 342, Miss_rate = 0.030, Pending_hits = 71, Reservation_fails = 0
L2_cache_bank[8]: Access = 10570, Miss = 342, Miss_rate = 0.032, Pending_hits = 69, Reservation_fails = 0
L2_cache_bank[9]: Access = 10713, Miss = 342, Miss_rate = 0.032, Pending_hits = 54, Reservation_fails = 0
L2_cache_bank[10]: Access = 11030, Miss = 340, Miss_rate = 0.031, Pending_hits = 71, Reservation_fails = 0
L2_cache_bank[11]: Access = 10656, Miss = 342, Miss_rate = 0.032, Pending_hits = 65, Reservation_fails = 0
L2_total_cache_accesses = 130375
L2_total_cache_misses = 4104
L2_total_cache_miss_rate = 0.0315
L2_total_cache_pending_hits = 790
L2_total_cache_reservation_fails = 627
L2_total_cache_breakdown:
	L2_cache_stats_breakdown[GLOBAL_ACC_R][HIT] = 123429
	L2_cache_stats_breakdown[GLOBAL_ACC_R][HIT_RESERVED] = 710
	L2_cache_stats_breakdown[GLOBAL_ACC_R][MISS] = 2050
	L2_cache_stats_breakdown[GLOBAL_ACC_R][RESERVATION_FAIL] = 105
	L2_cache_stats_breakdown[CONST_ACC_R][HIT] = 11
	L2_cache_stats_breakdown[CONST_ACC_R][HIT_RESERVED] = 3
	L2_cache_stats_breakdown[CONST_ACC_R][MISS] = 1
	L2_cache_stats_breakdown[CONST_ACC_R][RESERVATION_FAIL] = 108
	L2_cache_stats_breakdown[GLOBAL_ACC_W][HIT] = 1983
	L2_cache_stats_breakdown[GLOBAL_ACC_W][HIT_RESERVED] = 65
	L2_cache_stats_breakdown[GLOBAL_ACC_W][MISS] = 2048
	L2_cache_stats_breakdown[INST_ACC_R][HIT] = 58
	L2_cache_stats_breakdown[INST_ACC_R][HIT_RESERVED] = 12
	L2_cache_stats_breakdown[INST_ACC_R][MISS] = 5
	L2_cache_stats_breakdown[INST_ACC_R][RESERVATION_FAIL] = 414
L2_cache_data_port_util = 0.284
L2_cache_fill_port_util = 0.009

icnt_total_pkts_mem_to_simt=635461
icnt_total_pkts_simt_to_mem=138567
LD_mem_lat_dist  0 0 0 0 0 0 0 0 0 0 0 0 0 0 0 0 0 0 0 0 0 0 0 0 0 0 0
ST_mem_lat_dist  0 0 0 0 0 0 0 0 0 0 0 0 0 0 0 0 0 0 0 0 0 0 0 0 0 0 0
----------------------------Interconnect-DETAILS--------------------------------
Class 0:
Packet latency average = 16.6181
	minimum = 6
	maximum = 126
Network latency average = 13.7923
	minimum = 6
	maximum = 103
Slowest packet = 14
Flit latency average = 13.5417
	minimum = 6
	maximum = 99
Slowest flit = 458584
Fragmentation average = 0
	minimum = 0
	maximum = 0
Injected packet rate average = 0.066192
	minimum = 0.0375737 (at node 11)
	maximum = 0.0803975 (at node 15)
Accepted packet rate average = 0.066192
	minimum = 0.0375737 (at node 11)
	maximum = 0.0803975 (at node 15)
Injected flit rate average = 0.196489
	minimum = 0.0415216 (at node 11)
	maximum = 0.392461 (at node 15)
Accepted flit rate average= 0.196489
	minimum = 0.0764907 (at node 18)
	maximum = 0.389856 (at node 14)
Injected packet length average = 2.96847
Accepted packet length average = 2.96847
Total in-flight flits = 0 (0 measured)
====== Overall Traffic Statistics ======
====== Traffic class 0 ======
Packet latency average = 16.6181 (1 samples)
	minimum = 6 (1 samples)
	maximum = 126 (1 samples)
Network latency average = 13.7923 (1 samples)
	minimum = 6 (1 samples)
	maximum = 103 (1 samples)
Flit latency average = 13.5417 (1 samples)
	minimum = 6 (1 samples)
	maximum = 99 (1 samples)
Fragmentation average = 0 (1 samples)
	minimum = 0 (1 samples)
	maximum = 0 (1 samples)
Injected packet rate average = 0.066192 (1 samples)
	minimum = 0.0375737 (1 samples)
	maximum = 0.0803975 (1 samples)
Accepted packet rate average = 0.066192 (1 samples)
	minimum = 0.0375737 (1 samples)
	maximum = 0.0803975 (1 samples)
Injected flit rate average = 0.196489 (1 samples)
	minimum = 0.0415216 (1 samples)
	maximum = 0.392461 (1 samples)
Accepted flit rate average = 0.196489 (1 samples)
	minimum = 0.0764907 (1 samples)
	maximum = 0.389856 (1 samples)
Injected packet size average = 2.96847 (1 samples)
Accepted packet size average = 2.96847 (1 samples)
Hops average = 1 (1 samples)
----------------------------END-of-Interconnect-DETAILS-------------------------


gpgpu_simulation_time = 0 days, 0 hrs, 4 min, 27 sec (267 sec)
gpgpu_simulation_rate = 361069 (inst/sec)
gpgpu_simulation_rate = 546 (cycle/sec)
Processing time: 267350.437500 (ms) -- do done kernel  
matrixC
hello
reference
Test PASSED

Press ENTER to exit...
