

        *** GPGPU-Sim Simulator Version 3.2.2  [build 0] ***


GPGPU-Sim PTX: simulation mode 0 (can change with PTX_SIM_MODE_FUNC environment variable:
               1=functional simulation only, 0=detailed performance simulator)
GPGPU-Sim: Configuration options:

-network_mode                           1 # Interconnection network mode
-inter_config_file   config_fermi_islip.icnt # Interconnection network config file
-gpgpu_ptx_use_cuobjdump                    1 # Use cuobjdump to extract ptx and sass from binaries
-gpgpu_experimental_lib_support                    0 # Try to extract code from cuda libraries [Broken because of unknown cudaGetExportTable]
-gpgpu_ptx_convert_to_ptxplus                    0 # Convert SASS (native ISA) to ptxplus and run ptxplus
-gpgpu_ptx_force_max_capability                   20 # Force maximum compute capability
-gpgpu_ptx_inst_debug_to_file                    0 # Dump executed instructions' debug information to file
-gpgpu_ptx_inst_debug_file       inst_debug.txt # Executed instructions' debug output file
-gpgpu_ptx_inst_debug_thread_uid                    1 # Thread UID for executed instructions' debug output
-gpgpu_simd_model                       1 # 1 = post-dominator
-gpgpu_shader_core_pipeline              1536:32 # shader core pipeline config, i.e., {<nthread>:<warpsize>}
-gpgpu_tex_cache:l1  4:128:24,L:R:m:N:L,F:128:4,128:2 # per-shader L1 texture cache  (READ-ONLY) config  {<nsets>:<bsize>:<assoc>,<rep>:<wr>:<alloc>:<wr_alloc>,<mshr>:<N>:<merge>,<mq>:<rf>}
-gpgpu_const_cache:l1 64:64:2,L:R:f:N:L,A:2:32,4 # per-shader L1 constant memory cache  (READ-ONLY) config  {<nsets>:<bsize>:<assoc>,<rep>:<wr>:<alloc>:<wr_alloc>,<mshr>:<N>:<merge>,<mq>} 
-gpgpu_cache:il1     4:128:4,L:R:f:N:L,A:2:32,4 # shader L1 instruction cache config  {<nsets>:<bsize>:<assoc>,<rep>:<wr>:<alloc>:<wr_alloc>,<mshr>:<N>:<merge>,<mq>} 
-gpgpu_cache:dl1     32:128:4,L:L:m:N:H,A:32:8,8 # per-shader L1 data cache config  {<nsets>:<bsize>:<assoc>,<rep>:<wr>:<alloc>:<wr_alloc>,<mshr>:<N>:<merge>,<mq> | none}
-gpgpu_cache:dl1PrefL1                 none # per-shader L1 data cache config  {<nsets>:<bsize>:<assoc>,<rep>:<wr>:<alloc>:<wr_alloc>,<mshr>:<N>:<merge>,<mq> | none}
-gpgpu_cache:dl1PreShared                 none # per-shader L1 data cache config  {<nsets>:<bsize>:<assoc>,<rep>:<wr>:<alloc>:<wr_alloc>,<mshr>:<N>:<merge>,<mq> | none}
-gmem_skip_L1D                          0 # global memory access skip L1D cache (implements -Xptxas -dlcm=cg, default=no skip)
-gpgpu_perfect_mem                      0 # enable perfect memory mode (no cache miss)
-n_regfile_gating_group                    4 # group of lanes that should be read/written together)
-gpgpu_clock_gated_reg_file                    0 # enable clock gated reg file for power calculations
-gpgpu_clock_gated_lanes                    0 # enable clock gated lanes for power calculations
-gpgpu_shader_registers                32768 # Number of registers per shader core. Limits number of concurrent CTAs. (default 8192)
-gpgpu_shader_cta                       8 # Maximum number of concurrent CTAs in shader (default 8)
-gpgpu_num_cta_barriers                   16 # Maximum number of named barriers per CTA (default 16)
-gpgpu_n_clusters                      15 # number of processing clusters
-gpgpu_n_cores_per_cluster                    1 # number of simd cores per cluster
-gpgpu_n_cluster_ejection_buffer_size                    8 # number of packets in ejection buffer
-gpgpu_n_ldst_response_buffer_size                    2 # number of response packets in ld/st unit ejection buffer
-gpgpu_shmem_size                   16384 # Size of shared memory per shader core (default 16kB)
-gpgpu_shmem_size                   49152 # Size of shared memory per shader core (default 16kB)
-gpgpu_shmem_size_PrefL1                16384 # Size of shared memory per shader core (default 16kB)
-gpgpu_shmem_size_PrefShared                16384 # Size of shared memory per shader core (default 16kB)
-gpgpu_shmem_num_banks                   32 # Number of banks in the shared memory in each shader core (default 16)
-gpgpu_shmem_limited_broadcast                    0 # Limit shared memory to do one broadcast per cycle (default on)
-gpgpu_shmem_warp_parts                    1 # Number of portions a warp is divided into for shared memory bank conflict check 
-gpgpu_warpdistro_shader                   -1 # Specify which shader core to collect the warp size distribution from
-gpgpu_warp_issue_shader                    0 # Specify which shader core to collect the warp issue distribution from
-gpgpu_local_mem_map                    1 # Mapping from local memory space address to simulated GPU physical address space (default = enabled)
-gpgpu_num_reg_banks                   16 # Number of register banks (default = 8)
-gpgpu_reg_bank_use_warp_id                    0 # Use warp ID in mapping registers to banks (default = off)
-gpgpu_operand_collector_num_units_sp                    6 # number of collector units (default = 4)
-gpgpu_operand_collector_num_units_sfu                    8 # number of collector units (default = 4)
-gpgpu_operand_collector_num_units_mem                    2 # number of collector units (default = 2)
-gpgpu_operand_collector_num_units_gen                    0 # number of collector units (default = 0)
-gpgpu_operand_collector_num_in_ports_sp                    2 # number of collector unit in ports (default = 1)
-gpgpu_operand_collector_num_in_ports_sfu                    1 # number of collector unit in ports (default = 1)
-gpgpu_operand_collector_num_in_ports_mem                    1 # number of collector unit in ports (default = 1)
-gpgpu_operand_collector_num_in_ports_gen                    0 # number of collector unit in ports (default = 0)
-gpgpu_operand_collector_num_out_ports_sp                    2 # number of collector unit in ports (default = 1)
-gpgpu_operand_collector_num_out_ports_sfu                    1 # number of collector unit in ports (default = 1)
-gpgpu_operand_collector_num_out_ports_mem                    1 # number of collector unit in ports (default = 1)
-gpgpu_operand_collector_num_out_ports_gen                    0 # number of collector unit in ports (default = 0)
-gpgpu_coalesce_arch                   13 # Coalescing arch (default = 13, anything else is off for now)
-gpgpu_num_sched_per_core                    2 # Number of warp schedulers per core
-gpgpu_max_insn_issue_per_warp                    1 # Max number of instructions that can be issued per warp in one cycle by scheduler
-gpgpu_simt_core_sim_order                    1 # Select the simulation order of cores in a cluster (0=Fix, 1=Round-Robin)
-gpgpu_pipeline_widths        2,1,1,2,1,1,2 # Pipeline widths ID_OC_SP,ID_OC_SFU,ID_OC_MEM,OC_EX_SP,OC_EX_SFU,OC_EX_MEM,EX_WB
-gpgpu_num_sp_units                     2 # Number of SP units (default=1)
-gpgpu_num_sfu_units                    1 # Number of SF units (default=1)
-gpgpu_num_mem_units                    1 # Number if ldst units (default=1) WARNING: not hooked up to anything
-gpgpu_scheduler                      gto # Scheduler configuration: < lrr | gto | two_level_active > If two_level_active:<num_active_warps>:<inner_prioritization>:<outer_prioritization>For complete list of prioritization values see shader.h enum scheduler_prioritization_typeDefault: gto
-gpgpu_dram_scheduler                    1 # 0 = fifo, 1 = FR-FCFS (defaul)
-gpgpu_dram_partition_queues              8:8:8:8 # i2$:$2d:d2$:$2i
-l2_ideal                               0 # Use a ideal L2 cache that always hit
-gpgpu_cache:dl2     64:128:8,L:B:m:W:L,A:32:4,4:0,32 # unified banked L2 data cache config  {<nsets>:<bsize>:<assoc>,<rep>:<wr>:<alloc>:<wr_alloc>,<mshr>:<N>:<merge>,<mq>}
-gpgpu_cache:dl2_texture_only                    0 # L2 cache used for texture only
-gpgpu_n_mem                            6 # number of memory modules (e.g. memory controllers) in gpu
-gpgpu_n_sub_partition_per_mchannel                    2 # number of memory subpartition in each memory module
-gpgpu_n_mem_per_ctrlr                    2 # number of memory chips per memory controller
-gpgpu_memlatency_stat                   14 # track and display latency statistics 0x2 enables MC, 0x4 enables queue logs
-gpgpu_frfcfs_dram_sched_queue_size                   16 # 0 = unlimited (default); # entries per chip
-gpgpu_dram_return_queue_size                  116 # 0 = unlimited (default); # entries per chip
-gpgpu_dram_buswidth                    4 # default = 4 bytes (8 bytes per cycle at DDR)
-gpgpu_dram_burst_length                    8 # Burst length of each DRAM request (default = 4 data bus cycle)
-dram_data_command_freq_ratio                    4 # Frequency ratio between DRAM data bus and command bus (default = 2 times, i.e. DDR)
-gpgpu_dram_timing_opt nbk=16:CCD=2:RRD=6:RCD=12:RAS=28:RP=12:RC=40: CL=12:WL=4:CDLR=5:WR=12:nbkgrp=4:CCDL=3:RTPL=2 # DRAM timing parameters = {nbk:tCCD:tRRD:tRCD:tRAS:tRP:tRC:CL:WL:tCDLR:tWR:nbkgrp:tCCDL:tRTPL}
-rop_latency                          120 # ROP queue latency (default 85)
-dram_latency                         100 # DRAM latency (default 30)
-gpgpu_mem_addr_mapping dramid@8;00000000.00000000.00000000.00000000.0000RRRR.RRRRRRRR.BBBCCCCB.CCSSSSSS # mapping memory address to dram model {dramid@<start bit>;<memory address map>}
-gpgpu_mem_addr_test                    0 # run sweep test to check address mapping for aliased address
-gpgpu_mem_address_mask                    1 # 0 = old addressing mask, 1 = new addressing mask, 2 = new add. mask + flipped bank sel and chip sel bits
-gpuwattch_xml_file  gpuwattch_gtx480.xml # GPUWattch XML file
-power_simulation_enabled                    1 # Turn on power simulator (1=On, 0=Off)
-power_per_cycle_dump                    0 # Dump detailed power output each cycle
-power_trace_enabled                    0 # produce a file for the power trace (1=On, 0=Off)
-power_trace_zlevel                     6 # Compression level of the power trace output log (0=no comp, 9=highest)
-steady_power_levels_enabled                    0 # produce a file for the steady power levels (1=On, 0=Off)
-steady_state_definition                  8:4 # allowed deviation:number of samples
-gpgpu_max_cycle                        0 # terminates gpu simulation early (0 = no limit)
-gpgpu_max_insn                         0 # terminates gpu simulation early (0 = no limit)
-gpgpu_max_cta                          0 # terminates gpu simulation early (0 = no limit)
-gpgpu_runtime_stat                   500 # display runtime statistics such as dram utilization {<freq>:<flag>}
-liveness_message_freq                    1 # Minimum number of seconds between simulation liveness messages (0 = always print)
-gpgpu_flush_l1_cache                    0 # Flush L1 cache at the end of each kernel call
-gpgpu_flush_l2_cache                    0 # Flush L2 cache at the end of each kernel call
-gpgpu_deadlock_detect                    1 # Stop the simulation at deadlock (1=on (default), 0=off)
-gpgpu_ptx_instruction_classification                    0 # if enabled will classify ptx instruction types per kernel (Max 255 kernels now)
-gpgpu_ptx_sim_mode                     0 # Select between Performance (default) or Functional simulation (1)
-gpgpu_clock_domains 700.0:700.0:700.0:924.0 # Clock Domain Frequencies in MhZ {<Core Clock>:<ICNT Clock>:<L2 Clock>:<DRAM Clock>}
-gpgpu_max_concurrent_kernel                    8 # maximum kernels that can run concurrently on GPU
-gpgpu_cflog_interval                    0 # Interval between each snapshot in control flow logger
-visualizer_enabled                     0 # Turn on visualizer output (1=On, 0=Off)
-visualizer_outputfile                 NULL # Specifies the output log file for visualizer
-visualizer_zlevel                      6 # Compression level of the visualizer output log (0=no comp, 9=highest)
-trace_enabled                          0 # Turn on traces
-trace_components                    none # comma seperated list of traces to enable. Complete list found in trace_streams.tup. Default none
-trace_sampling_core                    0 # The core which is printed using CORE_DPRINTF. Default 0
-trace_sampling_memory_partition                   -1 # The memory partition which is printed using MEMPART_DPRINTF. Default -1 (i.e. all)
-enable_ptx_file_line_stats                    1 # Turn on PTX source line statistic profiling. (1 = On)
-ptx_line_stats_filename gpgpu_inst_stats.txt # Output file for PTX source line statistics.
-save_embedded_ptx                      0 # saves ptx files embedded in binary as <n>.ptx
-keep                                   0 # keep intermediate files created by GPGPU-Sim when interfacing with external programs
-gpgpu_ptx_save_converted_ptxplus                    0 # Saved converted ptxplus to a file
-ptx_opcode_latency_int         4,13,4,5,145 # Opcode latencies for integers <ADD,MAX,MUL,MAD,DIV>Default 1,1,19,25,145
-ptx_opcode_latency_fp          4,13,4,5,39 # Opcode latencies for single precision floating points <ADD,MAX,MUL,MAD,DIV>Default 1,1,1,1,30
-ptx_opcode_latency_dp         8,19,8,8,330 # Opcode latencies for double precision floating points <ADD,MAX,MUL,MAD,DIV>Default 8,8,8,8,335
-ptx_opcode_initiation_int            1,2,2,1,8 # Opcode initiation intervals for integers <ADD,MAX,MUL,MAD,DIV>Default 1,1,4,4,32
-ptx_opcode_initiation_fp            1,2,1,1,4 # Opcode initiation intervals for single precision floating points <ADD,MAX,MUL,MAD,DIV>Default 1,1,1,1,5
-ptx_opcode_initiation_dp         8,16,8,8,130 # Opcode initiation intervals for double precision floating points <ADD,MAX,MUL,MAD,DIV>Default 8,8,8,8,130
DRAM Timing Options:
nbk                                    16 # number of banks
CCD                                     2 # column to column delay
RRD                                     6 # minimal delay between activation of rows in different banks
RCD                                    12 # row to column delay
RAS                                    28 # time needed to activate row
RP                                     12 # time needed to precharge (deactivate) row
RC                                     40 # row cycle time
CDLR                                    5 # switching from write to read (changes tWTR)
WR                                     12 # last data-in to row precharge
CL                                     12 # CAS latency
WL                                      4 # Write latency
nbkgrp                                  4 # number of bank groups
CCDL                                    3 # column to column delay between accesses to different bank groups
RTPL                                    2 # read to precharge delay between accesses to different bank groups
Total number of memory sub partition = 12
addr_dec_mask[CHIP]  = 0000000000000000 	high:64 low:0
addr_dec_mask[BK]    = 000000000000e100 	high:16 low:8
addr_dec_mask[ROW]   = 000000000fff0000 	high:28 low:16
addr_dec_mask[COL]   = 0000000000001eff 	high:13 low:0
addr_dec_mask[BURST] = 000000000000003f 	high:6 low:0
sub_partition_id_mask = 0000000000000100
GPGPU-Sim uArch: clock freqs: 700000000.000000:700000000.000000:700000000.000000:924000000.000000
GPGPU-Sim uArch: clock periods: 0.00000000142857142857:0.00000000142857142857:0.00000000142857142857:0.00000000108225108225
*** Initializing Memory Statistics ***
GPGPU-Sim uArch: interconnect node map (shaderID+MemID to icntID)
GPGPU-Sim uArch: Memory nodes ID start from index: 15
GPGPU-Sim uArch:    0   1   2   3   4
GPGPU-Sim uArch:    5   6   7   8   9
GPGPU-Sim uArch:   10  11  12  13  14
GPGPU-Sim uArch:   15  16  17  18  19
GPGPU-Sim uArch:   20  21  22  23  24
GPGPU-Sim uArch:   25  26
GPGPU-Sim uArch: interconnect node reverse map (icntID to shaderID+MemID)
GPGPU-Sim uArch: Memory nodes start from ID: 15
GPGPU-Sim uArch:    0   1   2   3   4
GPGPU-Sim uArch:    5   6   7   8   9
GPGPU-Sim uArch:   10  11  12  13  14
GPGPU-Sim uArch:   15  16  17  18  19
GPGPU-Sim uArch:   20  21  22  23  24
GPGPU-Sim uArch:   25  26
f0cd970e13cc3094b9902327706ea7f0  /home/ece786/NVIDIA_GPU_Computing_SDK/C/bin/linux/release/matrix
GPGPU-Sim uArch: performance model initialization complete.
GPGPU-Sim PTX: FatBin file name extraction has not been tested on 32-bit system.
GPGPU-Sim PTX: __cudaRegisterFatBinary, fat_cubin_handle = 1, filename=matrix.cu
self exe links to: /home/ece786/NVIDIA_GPU_Computing_SDK/C/bin/linux/release/matrix
Running md5sum using "md5sum /home/ece786/NVIDIA_GPU_Computing_SDK/C/bin/linux/release/matrix "
Running cuobjdump using "$CUDA_INSTALL_PATH/bin/cuobjdump -ptx -elf -sass /home/ece786/NVIDIA_GPU_Computing_SDK/C/bin/linux/release/matrix > _cuobjdump_complete_output_DnkmnA"
Parsing file _cuobjdump_complete_output_DnkmnA
######### cuobjdump parser ########
## Adding new section PTX
Adding ptx filename: _cuobjdump_1.ptx
Adding arch: sm_10
Adding identifier: matrix.cu
## Adding new section ELF
Adding arch: sm_10
Adding identifier: matrix.cu
## Adding new section PTX
Adding ptx filename: _cuobjdump_2.ptx
Adding arch: sm_20
Adding identifier: matrix.cu
## Adding new section ELF
Adding arch: sm_20
Adding identifier: matrix.cu
Done parsing!!!
GPGPU-Sim PTX: __cudaRegisterFunction _Z10testKernelPfS_S_jjjj : hostFun 0x0x804b4c0, fat_cubin_handle = 1
GPGPU-Sim PTX: allocating shared region for "shm_matrixB" from 0x0 to 0x0 (shared memory space)
GPGPU-Sim PTX: instruction assembly for function '_Z10testKernelPfS_S_jjjj'...   done.
GPGPU-Sim PTX: finding reconvergence points for '_Z10testKernelPfS_S_jjjj'...
GPGPU-Sim PTX: Finding dominators for '_Z10testKernelPfS_S_jjjj'...
GPGPU-Sim PTX: Finding immediate dominators for '_Z10testKernelPfS_S_jjjj'...
GPGPU-Sim PTX: Finding postdominators for '_Z10testKernelPfS_S_jjjj'...
GPGPU-Sim PTX: Finding immediate postdominators for '_Z10testKernelPfS_S_jjjj'...
GPGPU-Sim PTX: pre-decoding instructions for '_Z10testKernelPfS_S_jjjj'...
GPGPU-Sim PTX: reconvergence points for _Z10testKernelPfS_S_jjjj...
GPGPU-Sim PTX:  1 (potential) branch divergence @  PC=0x070 (_1.ptx:80) @%p1 bra $Lt_0_7426;
GPGPU-Sim PTX:    immediate post dominator      @  PC=0x1c0 (_1.ptx:129) mov.u32 %r20, shm_matrixB;
GPGPU-Sim PTX:  2 (potential) branch divergence @  PC=0x0b0 (_1.ptx:88) @%p2 bra $Lt_0_6402;
GPGPU-Sim PTX:    immediate post dominator      @  PC=0x140 (_1.ptx:109) mov.u32 %r20, shm_matrixB;
GPGPU-Sim PTX:  3 (potential) branch divergence @  PC=0x138 (_1.ptx:107) @%p3 bra $Lt_0_6914;
GPGPU-Sim PTX:    immediate post dominator      @  PC=0x140 (_1.ptx:109) mov.u32 %r20, shm_matrixB;
GPGPU-Sim PTX:  4 (potential) branch divergence @  PC=0x150 (_1.ptx:111) @%p4 bra $Lt_0_7426;
GPGPU-Sim PTX:    immediate post dominator      @  PC=0x1c0 (_1.ptx:129) mov.u32 %r20, shm_matrixB;
GPGPU-Sim PTX:  5 (potential) branch divergence @  PC=0x1b8 (_1.ptx:126) @%p5 bra $Lt_0_7938;
GPGPU-Sim PTX:    immediate post dominator      @  PC=0x1c0 (_1.ptx:129) mov.u32 %r20, shm_matrixB;
GPGPU-Sim PTX:  6 (potential) branch divergence @  PC=0x220 (_1.ptx:142) @%p6 bra $Lt_0_11010;
GPGPU-Sim PTX:    immediate post dominator      @  PC=0x398 (_1.ptx:201) bar.sync 0;
GPGPU-Sim PTX:  7 (potential) branch divergence @  PC=0x268 (_1.ptx:153) @!%p7 bra $Lt_0_9218;
GPGPU-Sim PTX:    immediate post dominator      @  PC=0x368 (_1.ptx:192) add.s32 %r51, %r51, 1;
GPGPU-Sim PTX:  8 (potential) branch divergence @  PC=0x2a0 (_1.ptx:163) @!%p8 bra $Lt_0_12034;
GPGPU-Sim PTX:    immediate post dominator      @  PC=0x350 (_1.ptx:188) add.s32 %r56, %r56, 1;
GPGPU-Sim PTX:  9 (potential) branch divergence @  PC=0x2b8 (_1.ptx:166) @%p9 bra $Lt_0_12034;
GPGPU-Sim PTX:    immediate post dominator      @  PC=0x350 (_1.ptx:188) add.s32 %r56, %r56, 1;
GPGPU-Sim PTX: 10 (potential) branch divergence @  PC=0x2d8 (_1.ptx:170) @%p10 bra $Lt_0_12034;
GPGPU-Sim PTX:    immediate post dominator      @  PC=0x350 (_1.ptx:188) add.s32 %r56, %r56, 1;
GPGPU-Sim PTX: 11 (potential) branch divergence @  PC=0x2e8 (_1.ptx:172) @%p11 bra $Lt_0_12034;
GPGPU-Sim PTX:    immediate post dominator      @  PC=0x350 (_1.ptx:188) add.s32 %r56, %r56, 1;
GPGPU-Sim PTX: 12 (potential) branch divergence @  PC=0x360 (_1.ptx:190) @%p12 bra $Lt_0_9730;
GPGPU-Sim PTX:    immediate post dominator      @  PC=0x368 (_1.ptx:192) add.s32 %r51, %r51, 1;
GPGPU-Sim PTX: 13 (potential) branch divergence @  PC=0x378 (_1.ptx:194) @%p13 bra $Lt_0_8962;
GPGPU-Sim PTX:    immediate post dominator      @  PC=0x380 (_1.ptx:195) bra.uni $Lt_0_8450;
GPGPU-Sim PTX: 14 (potential) branch divergence @  PC=0x380 (_1.ptx:195) bra.uni $Lt_0_8450;
GPGPU-Sim PTX:    immediate post dominator      @  PC=0x398 (_1.ptx:201) bar.sync 0;
GPGPU-Sim PTX: ... end of reconvergence points for _Z10testKernelPfS_S_jjjj
GPGPU-Sim PTX: ... done pre-decoding instructions for '_Z10testKernelPfS_S_jjjj'.
GPGPU-Sim PTX: finished parsing EMBEDDED .ptx file _1.ptx
Adding _cuobjdump_2.ptx with cubin handle 1
GPGPU-Sim PTX: extracting embedded .ptx to temporary file "_ptx_pmLA8S"
Running: cat _ptx_pmLA8S | sed 's/.version 1.5/.version 1.4/' | sed 's/, texmode_independent//' | sed 's/\(\.extern \.const\[1\] .b8 \w\+\)\[\]/\1\[1\]/' | sed 's/const\[.\]/const\[0\]/g' > _ptx2_xDfRTb
GPGPU-Sim PTX: generating ptxinfo using "$CUDA_INSTALL_PATH/bin/ptxas --gpu-name=sm_20 -v _ptx2_xDfRTb --output-file  /dev/null 2> _ptx_pmLA8Sinfo"
GPGPU-Sim PTX: Kernel '_Z10testKernelPfS_S_jjjj' : regs=10, lmem=0, smem=0, cmem=60
GPGPU-Sim PTX: removing ptxinfo using "rm -f _ptx_pmLA8S _ptx2_xDfRTb _ptx_pmLA8Sinfo"
GPGPU-Sim PTX: loading globals with explicit initializers... 
GPGPU-Sim PTX: finished loading globals (0 bytes total).
GPGPU-Sim PTX: loading constants with explicit initializers...  done.
initalize A
matrix A
matrix B
Start Timer

GPGPU-Sim PTX: cudaLaunch for 0x0x804b4c0 (mode=performance simulation) on stream 0
GPGPU-Sim PTX: pushing kernel '_Z10testKernelPfS_S_jjjj' to stream 0, gridDim= (16,16,1) blockDim = (16,16,1) 
kernel '_Z10testKernelPfS_S_jjjj' transfer to GPU hardware scheduler
GPGPU-Sim uArch: Shader 1 bind to kernel 1 '_Z10testKernelPfS_S_jjjj'
GPGPU-Sim uArch: CTA/core = 6, limited by: threads
GPGPU-Sim uArch: core:  1, cta: 0 initialized @(1,0)
GPGPU-Sim uArch: Shader 2 bind to kernel 1 '_Z10testKernelPfS_S_jjjj'
GPGPU-Sim uArch: core:  2, cta: 0 initialized @(1,0)
GPGPU-Sim uArch: Shader 3 bind to kernel 1 '_Z10testKernelPfS_S_jjjj'
GPGPU-Sim uArch: core:  3, cta: 0 initialized @(1,0)
GPGPU-Sim uArch: Shader 4 bind to kernel 1 '_Z10testKernelPfS_S_jjjj'
GPGPU-Sim uArch: core:  4, cta: 0 initialized @(1,0)
GPGPU-Sim uArch: Shader 5 bind to kernel 1 '_Z10testKernelPfS_S_jjjj'
GPGPU-Sim uArch: core:  5, cta: 0 initialized @(1,0)
GPGPU-Sim uArch: Shader 6 bind to kernel 1 '_Z10testKernelPfS_S_jjjj'
GPGPU-Sim uArch: core:  6, cta: 0 initialized @(1,0)
GPGPU-Sim uArch: Shader 7 bind to kernel 1 '_Z10testKernelPfS_S_jjjj'
GPGPU-Sim uArch: core:  7, cta: 0 initialized @(1,0)
GPGPU-Sim uArch: Shader 8 bind to kernel 1 '_Z10testKernelPfS_S_jjjj'
GPGPU-Sim uArch: core:  8, cta: 0 initialized @(1,0)
GPGPU-Sim uArch: Shader 9 bind to kernel 1 '_Z10testKernelPfS_S_jjjj'
GPGPU-Sim uArch: core:  9, cta: 0 initialized @(1,0)
GPGPU-Sim uArch: Shader 10 bind to kernel 1 '_Z10testKernelPfS_S_jjjj'
GPGPU-Sim uArch: core: 10, cta: 0 initialized @(1,0)
GPGPU-Sim uArch: Shader 11 bind to kernel 1 '_Z10testKernelPfS_S_jjjj'
GPGPU-Sim uArch: core: 11, cta: 0 initialized @(1,0)
GPGPU-Sim uArch: Shader 12 bind to kernel 1 '_Z10testKernelPfS_S_jjjj'
GPGPU-Sim uArch: core: 12, cta: 0 initialized @(1,0)
GPGPU-Sim uArch: Shader 13 bind to kernel 1 '_Z10testKernelPfS_S_jjjj'
GPGPU-Sim uArch: core: 13, cta: 0 initialized @(1,0)
GPGPU-Sim uArch: Shader 14 bind to kernel 1 '_Z10testKernelPfS_S_jjjj'
GPGPU-Sim uArch: core: 14, cta: 0 initialized @(1,0)
GPGPU-Sim uArch: Shader 0 bind to kernel 1 '_Z10testKernelPfS_S_jjjj'
GPGPU-Sim uArch: core:  0, cta: 0 initialized @(1,0)
GPGPU-Sim uArch: core:  1, cta: 1 initialized @(2,0)
GPGPU-Sim uArch: core:  2, cta: 1 initialized @(2,0)
GPGPU-Sim uArch: core:  3, cta: 1 initialized @(2,0)
GPGPU-Sim uArch: core:  4, cta: 1 initialized @(2,0)
GPGPU-Sim uArch: core:  5, cta: 1 initialized @(2,0)
GPGPU-Sim uArch: core:  6, cta: 1 initialized @(2,0)
GPGPU-Sim uArch: core:  7, cta: 1 initialized @(2,0)
GPGPU-Sim uArch: core:  8, cta: 1 initialized @(2,0)
GPGPU-Sim uArch: core:  9, cta: 1 initialized @(2,0)
GPGPU-Sim uArch: core: 10, cta: 1 initialized @(2,0)
GPGPU-Sim uArch: core: 11, cta: 1 initialized @(2,0)
GPGPU-Sim uArch: core: 12, cta: 1 initialized @(2,0)
GPGPU-Sim uArch: core: 13, cta: 1 initialized @(2,0)
GPGPU-Sim uArch: core: 14, cta: 1 initialized @(2,0)
GPGPU-Sim uArch: core:  0, cta: 1 initialized @(2,0)
GPGPU-Sim uArch: core:  1, cta: 2 initialized @(3,0)
GPGPU-Sim uArch: core:  2, cta: 2 initialized @(3,0)
GPGPU-Sim uArch: core:  3, cta: 2 initialized @(3,0)
GPGPU-Sim uArch: core:  4, cta: 2 initialized @(3,0)
GPGPU-Sim uArch: core:  5, cta: 2 initialized @(3,0)
GPGPU-Sim uArch: core:  6, cta: 2 initialized @(3,0)
GPGPU-Sim uArch: core:  7, cta: 2 initialized @(3,0)
GPGPU-Sim uArch: core:  8, cta: 2 initialized @(3,0)
GPGPU-Sim uArch: core:  9, cta: 2 initialized @(3,0)
GPGPU-Sim uArch: core: 10, cta: 2 initialized @(3,0)
GPGPU-Sim uArch: core: 11, cta: 2 initialized @(3,0)
GPGPU-Sim uArch: core: 12, cta: 2 initialized @(3,0)
GPGPU-Sim uArch: core: 13, cta: 2 initialized @(3,0)
GPGPU-Sim uArch: core: 14, cta: 2 initialized @(3,0)
GPGPU-Sim uArch: core:  0, cta: 2 initialized @(3,0)
GPGPU-Sim uArch: core:  1, cta: 3 initialized @(4,0)
GPGPU-Sim uArch: core:  2, cta: 3 initialized @(4,0)
GPGPU-Sim uArch: core:  3, cta: 3 initialized @(4,0)
GPGPU-Sim uArch: core:  4, cta: 3 initialized @(4,0)
GPGPU-Sim uArch: core:  5, cta: 3 initialized @(4,0)
GPGPU-Sim uArch: core:  6, cta: 3 initialized @(4,0)
GPGPU-Sim uArch: core:  7, cta: 3 initialized @(4,0)
GPGPU-Sim uArch: core:  8, cta: 3 initialized @(4,0)
GPGPU-Sim uArch: core:  9, cta: 3 initialized @(4,0)
GPGPU-Sim uArch: core: 10, cta: 3 initialized @(4,0)
GPGPU-Sim uArch: core: 11, cta: 3 initialized @(4,0)
GPGPU-Sim uArch: core: 12, cta: 3 initialized @(4,0)
GPGPU-Sim uArch: core: 13, cta: 3 initialized @(4,0)
GPGPU-Sim uArch: core: 14, cta: 3 initialized @(4,0)
GPGPU-Sim uArch: core:  0, cta: 3 initialized @(4,0)
GPGPU-Sim uArch: core:  1, cta: 4 initialized @(5,0)
GPGPU-Sim uArch: core:  2, cta: 4 initialized @(5,0)
GPGPU-Sim uArch: core:  3, cta: 4 initialized @(5,0)
GPGPU-Sim uArch: core:  4, cta: 4 initialized @(5,0)
GPGPU-Sim uArch: core:  5, cta: 4 initialized @(5,0)
GPGPU-Sim uArch: core:  6, cta: 4 initialized @(5,0)
GPGPU-Sim uArch: core:  7, cta: 4 initialized @(5,0)
GPGPU-Sim uArch: core:  8, cta: 4 initialized @(5,0)
GPGPU-Sim uArch: core:  9, cta: 4 initialized @(5,0)
GPGPU-Sim uArch: core: 10, cta: 4 initialized @(5,0)
GPGPU-Sim uArch: core: 11, cta: 4 initialized @(5,0)
GPGPU-Sim uArch: core: 12, cta: 4 initialized @(5,0)
GPGPU-Sim uArch: core: 13, cta: 4 initialized @(5,0)
GPGPU-Sim uArch: core: 14, cta: 4 initialized @(5,0)
GPGPU-Sim uArch: core:  0, cta: 4 initialized @(5,0)
GPGPU-Sim uArch: core:  1, cta: 5 initialized @(6,0)
GPGPU-Sim uArch: core:  2, cta: 5 initialized @(6,0)
GPGPU-Sim uArch: core:  3, cta: 5 initialized @(6,0)
GPGPU-Sim uArch: core:  4, cta: 5 initialized @(6,0)
GPGPU-Sim uArch: core:  5, cta: 5 initialized @(6,0)
GPGPU-Sim uArch: core:  6, cta: 5 initialized @(6,0)
GPGPU-Sim uArch: core:  7, cta: 5 initialized @(6,0)
GPGPU-Sim uArch: core:  8, cta: 5 initialized @(6,0)
GPGPU-Sim uArch: core:  9, cta: 5 initialized @(6,0)
GPGPU-Sim uArch: core: 10, cta: 5 initialized @(6,0)
GPGPU-Sim uArch: core: 11, cta: 5 initialized @(6,0)
GPGPU-Sim uArch: core: 12, cta: 5 initialized @(6,0)
GPGPU-Sim uArch: core: 13, cta: 5 initialized @(6,0)
GPGPU-Sim uArch: core: 14, cta: 5 initialized @(6,0)
GPGPU-Sim uArch: core:  0, cta: 5 initialized @(6,0)
GPGPU-Sim PTX: 100000 instructions simulated : ctaid=(10,3,0) tid=(15,7,0)
GPGPU-Sim uArch: cycles simulated: 500  inst.: 139488 (ipc=279.0) sim_rate=139488 (inst/sec) elapsed = 0:0:00:01 / Sun Mar  8 15:56:53 2015
GPGPU-Sim PTX: 200000 instructions simulated : ctaid=(14,1,0) tid=(15,11,0)
GPGPU-Sim PTX: 300000 instructions simulated : ctaid=(1,3,0) tid=(13,13,0)
GPGPU-Sim uArch: cycles simulated: 2000  inst.: 393291 (ipc=196.6) sim_rate=196645 (inst/sec) elapsed = 0:0:00:02 / Sun Mar  8 15:56:54 2015
GPGPU-Sim PTX: 400000 instructions simulated : ctaid=(7,0,0) tid=(0,0,0)
GPGPU-Sim uArch: cycles simulated: 3500  inst.: 412829 (ipc=118.0) sim_rate=137609 (inst/sec) elapsed = 0:0:00:03 / Sun Mar  8 15:56:55 2015
GPGPU-Sim PTX: 500000 instructions simulated : ctaid=(14,2,0) tid=(15,2,0)
GPGPU-Sim PTX: 600000 instructions simulated : ctaid=(2,1,0) tid=(11,5,0)
GPGPU-Sim PTX: 700000 instructions simulated : ctaid=(12,2,0) tid=(10,12,0)
GPGPU-Sim uArch: cycles simulated: 4500  inst.: 731363 (ipc=162.5) sim_rate=182840 (inst/sec) elapsed = 0:0:00:04 / Sun Mar  8 15:56:56 2015
GPGPU-Sim PTX: 800000 instructions simulated : ctaid=(6,0,0) tid=(6,14,0)
GPGPU-Sim PTX: 900000 instructions simulated : ctaid=(10,3,0) tid=(10,12,0)
GPGPU-Sim PTX: 1000000 instructions simulated : ctaid=(6,1,0) tid=(12,7,0)
GPGPU-Sim PTX: 1100000 instructions simulated : ctaid=(5,4,0) tid=(13,5,0)
GPGPU-Sim uArch: cycles simulated: 5000  inst.: 1017532 (ipc=203.5) sim_rate=203506 (inst/sec) elapsed = 0:0:00:05 / Sun Mar  8 15:56:57 2015
GPGPU-Sim PTX: 1200000 instructions simulated : ctaid=(0,0,0) tid=(6,6,0)
GPGPU-Sim PTX: 1300000 instructions simulated : ctaid=(6,2,0) tid=(3,11,0)
GPGPU-Sim PTX: 1400000 instructions simulated : ctaid=(2,0,0) tid=(1,9,0)
GPGPU-Sim PTX: 1500000 instructions simulated : ctaid=(15,0,0) tid=(12,5,0)
GPGPU-Sim uArch: cycles simulated: 6000  inst.: 1369494 (ipc=228.2) sim_rate=228249 (inst/sec) elapsed = 0:0:00:06 / Sun Mar  8 15:56:58 2015
GPGPU-Sim PTX: 1600000 instructions simulated : ctaid=(3,3,0) tid=(1,5,0)
GPGPU-Sim PTX: 1700000 instructions simulated : ctaid=(9,0,0) tid=(2,13,0)
GPGPU-Sim PTX: 1800000 instructions simulated : ctaid=(9,1,0) tid=(11,2,0)
GPGPU-Sim PTX: 1900000 instructions simulated : ctaid=(3,1,0) tid=(14,5,0)
GPGPU-Sim uArch: cycles simulated: 6500  inst.: 1711603 (ipc=263.3) sim_rate=244514 (inst/sec) elapsed = 0:0:00:07 / Sun Mar  8 15:56:59 2015
GPGPU-Sim PTX: 2000000 instructions simulated : ctaid=(8,2,0) tid=(0,1,0)
GPGPU-Sim PTX: 2100000 instructions simulated : ctaid=(9,1,0) tid=(9,5,0)
GPGPU-Sim PTX: 2200000 instructions simulated : ctaid=(7,1,0) tid=(5,1,0)
GPGPU-Sim PTX: 2300000 instructions simulated : ctaid=(0,2,0) tid=(6,2,0)
GPGPU-Sim PTX: 2400000 instructions simulated : ctaid=(8,2,0) tid=(8,1,0)
GPGPU-Sim uArch: cycles simulated: 7000  inst.: 2097464 (ipc=299.6) sim_rate=262183 (inst/sec) elapsed = 0:0:00:08 / Sun Mar  8 15:57:00 2015
GPGPU-Sim PTX: 2500000 instructions simulated : ctaid=(3,0,0) tid=(8,14,0)
GPGPU-Sim PTX: 2600000 instructions simulated : ctaid=(9,3,0) tid=(10,5,0)
GPGPU-Sim PTX: 2700000 instructions simulated : ctaid=(10,2,0) tid=(9,6,0)
GPGPU-Sim PTX: 2800000 instructions simulated : ctaid=(1,0,0) tid=(9,14,0)
GPGPU-Sim uArch: cycles simulated: 7500  inst.: 2477336 (ipc=330.3) sim_rate=275259 (inst/sec) elapsed = 0:0:00:09 / Sun Mar  8 15:57:01 2015
GPGPU-Sim PTX: 2900000 instructions simulated : ctaid=(11,2,0) tid=(5,7,0)
GPGPU-Sim PTX: 3000000 instructions simulated : ctaid=(5,2,0) tid=(7,13,0)
GPGPU-Sim PTX: 3100000 instructions simulated : ctaid=(9,3,0) tid=(4,13,0)
GPGPU-Sim PTX: 3200000 instructions simulated : ctaid=(2,4,0) tid=(12,1,0)
GPGPU-Sim PTX: 3300000 instructions simulated : ctaid=(2,4,0) tid=(10,13,0)
GPGPU-Sim uArch: cycles simulated: 8000  inst.: 2855355 (ipc=356.9) sim_rate=285535 (inst/sec) elapsed = 0:0:00:10 / Sun Mar  8 15:57:02 2015
GPGPU-Sim PTX: 3400000 instructions simulated : ctaid=(3,4,0) tid=(7,1,0)
GPGPU-Sim PTX: 3500000 instructions simulated : ctaid=(3,2,0) tid=(10,4,0)
GPGPU-Sim PTX: 3600000 instructions simulated : ctaid=(7,1,0) tid=(12,4,0)
GPGPU-Sim PTX: 3700000 instructions simulated : ctaid=(12,0,0) tid=(0,13,0)
GPGPU-Sim PTX: 3800000 instructions simulated : ctaid=(4,3,0) tid=(0,9,0)
GPGPU-Sim PTX: 3900000 instructions simulated : ctaid=(3,4,0) tid=(1,13,0)
GPGPU-Sim PTX: 4000000 instructions simulated : ctaid=(0,0,0) tid=(4,5,0)
GPGPU-Sim PTX: 4100000 instructions simulated : ctaid=(11,3,0) tid=(13,3,0)
GPGPU-Sim PTX: 4200000 instructions simulated : ctaid=(10,4,0) tid=(1,10,0)
GPGPU-Sim uArch: cycles simulated: 9000  inst.: 3614588 (ipc=401.6) sim_rate=328598 (inst/sec) elapsed = 0:0:00:11 / Sun Mar  8 15:57:03 2015
GPGPU-Sim PTX: 4300000 instructions simulated : ctaid=(7,3,0) tid=(14,13,0)
GPGPU-Sim PTX: 4400000 instructions simulated : ctaid=(4,0,0) tid=(9,8,0)
GPGPU-Sim PTX: 4500000 instructions simulated : ctaid=(12,3,0) tid=(10,13,0)
GPGPU-Sim PTX: 4600000 instructions simulated : ctaid=(0,0,0) tid=(4,15,0)
GPGPU-Sim uArch: cycles simulated: 9500  inst.: 3989847 (ipc=420.0) sim_rate=332487 (inst/sec) elapsed = 0:0:00:12 / Sun Mar  8 15:57:04 2015
GPGPU-Sim PTX: 4700000 instructions simulated : ctaid=(0,0,0) tid=(3,14,0)
GPGPU-Sim PTX: 4800000 instructions simulated : ctaid=(3,1,0) tid=(10,2,0)
GPGPU-Sim PTX: 4900000 instructions simulated : ctaid=(6,0,0) tid=(6,12,0)
GPGPU-Sim PTX: 5000000 instructions simulated : ctaid=(8,3,0) tid=(9,3,0)
GPGPU-Sim PTX: 5100000 instructions simulated : ctaid=(2,0,0) tid=(2,11,0)
GPGPU-Sim uArch: cycles simulated: 10000  inst.: 4365685 (ipc=436.6) sim_rate=335821 (inst/sec) elapsed = 0:0:00:13 / Sun Mar  8 15:57:05 2015
GPGPU-Sim PTX: 5200000 instructions simulated : ctaid=(8,3,0) tid=(5,8,0)
GPGPU-Sim PTX: 5300000 instructions simulated : ctaid=(1,4,0) tid=(2,0,0)
GPGPU-Sim PTX: 5400000 instructions simulated : ctaid=(6,3,0) tid=(14,8,0)
GPGPU-Sim PTX: 5500000 instructions simulated : ctaid=(13,3,0) tid=(15,2,0)
GPGPU-Sim uArch: cycles simulated: 10500  inst.: 4743426 (ipc=451.8) sim_rate=338816 (inst/sec) elapsed = 0:0:00:14 / Sun Mar  8 15:57:06 2015
GPGPU-Sim PTX: 5600000 instructions simulated : ctaid=(5,5,0) tid=(13,2,0)
GPGPU-Sim PTX: 5700000 instructions simulated : ctaid=(4,2,0) tid=(8,4,0)
GPGPU-Sim PTX: 5800000 instructions simulated : ctaid=(11,2,0) tid=(13,14,0)
GPGPU-Sim PTX: 5900000 instructions simulated : ctaid=(7,5,0) tid=(1,13,0)
GPGPU-Sim PTX: 6000000 instructions simulated : ctaid=(4,4,0) tid=(3,10,0)
GPGPU-Sim uArch: cycles simulated: 11000  inst.: 5120106 (ipc=465.5) sim_rate=341340 (inst/sec) elapsed = 0:0:00:15 / Sun Mar  8 15:57:07 2015
GPGPU-Sim PTX: 6100000 instructions simulated : ctaid=(10,4,0) tid=(15,13,0)
GPGPU-Sim PTX: 6200000 instructions simulated : ctaid=(11,2,0) tid=(0,14,0)
GPGPU-Sim PTX: 6300000 instructions simulated : ctaid=(8,4,0) tid=(5,9,0)
GPGPU-Sim PTX: 6400000 instructions simulated : ctaid=(15,4,0) tid=(10,14,0)
GPGPU-Sim uArch: cycles simulated: 11500  inst.: 5497247 (ipc=478.0) sim_rate=343577 (inst/sec) elapsed = 0:0:00:16 / Sun Mar  8 15:57:08 2015
GPGPU-Sim PTX: 6500000 instructions simulated : ctaid=(10,0,0) tid=(2,4,0)
GPGPU-Sim PTX: 6600000 instructions simulated : ctaid=(1,1,0) tid=(15,13,0)
GPGPU-Sim PTX: 6700000 instructions simulated : ctaid=(7,1,0) tid=(13,7,0)
GPGPU-Sim PTX: 6800000 instructions simulated : ctaid=(12,0,0) tid=(11,3,0)
GPGPU-Sim PTX: 6900000 instructions simulated : ctaid=(15,0,0) tid=(11,13,0)
GPGPU-Sim uArch: cycles simulated: 12000  inst.: 5876982 (ipc=489.7) sim_rate=345704 (inst/sec) elapsed = 0:0:00:17 / Sun Mar  8 15:57:09 2015
GPGPU-Sim PTX: 7000000 instructions simulated : ctaid=(1,4,0) tid=(5,2,0)
GPGPU-Sim PTX: 7100000 instructions simulated : ctaid=(15,0,0) tid=(1,1,0)
GPGPU-Sim PTX: 7200000 instructions simulated : ctaid=(4,5,0) tid=(13,11,0)
GPGPU-Sim PTX: 7300000 instructions simulated : ctaid=(5,2,0) tid=(9,3,0)
GPGPU-Sim uArch: cycles simulated: 12500  inst.: 6256344 (ipc=500.5) sim_rate=347574 (inst/sec) elapsed = 0:0:00:18 / Sun Mar  8 15:57:10 2015
GPGPU-Sim PTX: 7400000 instructions simulated : ctaid=(11,4,0) tid=(7,12,0)
GPGPU-Sim PTX: 7500000 instructions simulated : ctaid=(10,4,0) tid=(15,1,0)
GPGPU-Sim PTX: 7600000 instructions simulated : ctaid=(8,5,0) tid=(15,10,0)
GPGPU-Sim PTX: 7700000 instructions simulated : ctaid=(7,3,0) tid=(15,3,0)
GPGPU-Sim PTX: 7800000 instructions simulated : ctaid=(9,4,0) tid=(11,14,0)
GPGPU-Sim uArch: cycles simulated: 13000  inst.: 6635910 (ipc=510.5) sim_rate=349258 (inst/sec) elapsed = 0:0:00:19 / Sun Mar  8 15:57:11 2015
GPGPU-Sim PTX: 7900000 instructions simulated : ctaid=(11,1,0) tid=(15,7,0)
GPGPU-Sim PTX: 8000000 instructions simulated : ctaid=(5,3,0) tid=(1,12,0)
GPGPU-Sim PTX: 8100000 instructions simulated : ctaid=(12,3,0) tid=(9,8,0)
GPGPU-Sim PTX: 8200000 instructions simulated : ctaid=(7,0,0) tid=(11,10,0)
GPGPU-Sim uArch: cycles simulated: 13500  inst.: 7016018 (ipc=519.7) sim_rate=350800 (inst/sec) elapsed = 0:0:00:20 / Sun Mar  8 15:57:12 2015
GPGPU-Sim PTX: 8300000 instructions simulated : ctaid=(12,3,0) tid=(1,15,0)
GPGPU-Sim PTX: 8400000 instructions simulated : ctaid=(13,3,0) tid=(9,14,0)
GPGPU-Sim PTX: 8500000 instructions simulated : ctaid=(7,1,0) tid=(7,0,0)
GPGPU-Sim PTX: 8600000 instructions simulated : ctaid=(14,4,0) tid=(13,13,0)
GPGPU-Sim PTX: 8700000 instructions simulated : ctaid=(12,1,0) tid=(5,11,0)
GPGPU-Sim uArch: cycles simulated: 14000  inst.: 7394782 (ipc=528.2) sim_rate=352132 (inst/sec) elapsed = 0:0:00:21 / Sun Mar  8 15:57:13 2015
GPGPU-Sim PTX: 8800000 instructions simulated : ctaid=(6,2,0) tid=(3,3,0)
GPGPU-Sim PTX: 8900000 instructions simulated : ctaid=(15,0,0) tid=(13,4,0)
GPGPU-Sim PTX: 9000000 instructions simulated : ctaid=(14,2,0) tid=(11,14,0)
GPGPU-Sim PTX: 9100000 instructions simulated : ctaid=(0,4,0) tid=(5,14,0)
GPGPU-Sim PTX: 9200000 instructions simulated : ctaid=(10,4,0) tid=(5,6,0)
GPGPU-Sim PTX: 9300000 instructions simulated : ctaid=(13,2,0) tid=(15,9,0)
GPGPU-Sim PTX: 9400000 instructions simulated : ctaid=(12,1,0) tid=(7,15,0)
GPGPU-Sim PTX: 9500000 instructions simulated : ctaid=(8,1,0) tid=(5,14,0)
GPGPU-Sim PTX: 9600000 instructions simulated : ctaid=(8,3,0) tid=(15,13,0)
GPGPU-Sim uArch: cycles simulated: 15000  inst.: 8151900 (ipc=543.5) sim_rate=370540 (inst/sec) elapsed = 0:0:00:22 / Sun Mar  8 15:57:14 2015
GPGPU-Sim PTX: 9700000 instructions simulated : ctaid=(15,1,0) tid=(11,13,0)
GPGPU-Sim PTX: 9800000 instructions simulated : ctaid=(6,5,0) tid=(7,13,0)
GPGPU-Sim PTX: 9900000 instructions simulated : ctaid=(10,1,0) tid=(15,0,0)
GPGPU-Sim PTX: 10000000 instructions simulated : ctaid=(10,3,0) tid=(3,11,0)
GPGPU-Sim uArch: cycles simulated: 15500  inst.: 8531284 (ipc=550.4) sim_rate=370925 (inst/sec) elapsed = 0:0:00:23 / Sun Mar  8 15:57:15 2015
GPGPU-Sim PTX: 10100000 instructions simulated : ctaid=(6,4,0) tid=(15,14,0)
GPGPU-Sim PTX: 10200000 instructions simulated : ctaid=(2,3,0) tid=(5,12,0)
GPGPU-Sim PTX: 10300000 instructions simulated : ctaid=(10,4,0) tid=(1,4,0)
GPGPU-Sim PTX: 10400000 instructions simulated : ctaid=(11,1,0) tid=(7,7,0)
GPGPU-Sim PTX: 10500000 instructions simulated : ctaid=(3,0,0) tid=(13,7,0)
GPGPU-Sim uArch: cycles simulated: 16000  inst.: 8907776 (ipc=556.7) sim_rate=371157 (inst/sec) elapsed = 0:0:00:24 / Sun Mar  8 15:57:16 2015
GPGPU-Sim PTX: 10600000 instructions simulated : ctaid=(12,2,0) tid=(3,7,0)
GPGPU-Sim PTX: 10700000 instructions simulated : ctaid=(5,1,0) tid=(15,2,0)
GPGPU-Sim PTX: 10800000 instructions simulated : ctaid=(12,0,0) tid=(1,12,0)
GPGPU-Sim PTX: 10900000 instructions simulated : ctaid=(6,1,0) tid=(9,14,0)
GPGPU-Sim uArch: cycles simulated: 16500  inst.: 9286384 (ipc=562.8) sim_rate=371455 (inst/sec) elapsed = 0:0:00:25 / Sun Mar  8 15:57:17 2015
GPGPU-Sim PTX: 11000000 instructions simulated : ctaid=(3,3,0) tid=(9,14,0)
GPGPU-Sim PTX: 11100000 instructions simulated : ctaid=(7,2,0) tid=(3,2,0)
GPGPU-Sim PTX: 11200000 instructions simulated : ctaid=(12,4,0) tid=(9,6,0)
GPGPU-Sim PTX: 11300000 instructions simulated : ctaid=(6,5,0) tid=(13,11,0)
GPGPU-Sim PTX: 11400000 instructions simulated : ctaid=(12,3,0) tid=(11,1,0)
GPGPU-Sim uArch: cycles simulated: 17000  inst.: 9667460 (ipc=568.7) sim_rate=371825 (inst/sec) elapsed = 0:0:00:26 / Sun Mar  8 15:57:18 2015
GPGPU-Sim PTX: 11500000 instructions simulated : ctaid=(7,1,0) tid=(13,7,0)
GPGPU-Sim PTX: 11600000 instructions simulated : ctaid=(13,3,0) tid=(15,9,0)
GPGPU-Sim PTX: 11700000 instructions simulated : ctaid=(6,5,0) tid=(15,14,0)
GPGPU-Sim PTX: 11800000 instructions simulated : ctaid=(0,5,0) tid=(5,7,0)
GPGPU-Sim uArch: cycles simulated: 17500  inst.: 10047112 (ipc=574.1) sim_rate=372115 (inst/sec) elapsed = 0:0:00:27 / Sun Mar  8 15:57:19 2015
GPGPU-Sim PTX: 11900000 instructions simulated : ctaid=(15,3,0) tid=(13,6,0)
GPGPU-Sim PTX: 12000000 instructions simulated : ctaid=(3,0,0) tid=(7,15,0)
GPGPU-Sim PTX: 12100000 instructions simulated : ctaid=(5,3,0) tid=(11,12,0)
GPGPU-Sim PTX: 12200000 instructions simulated : ctaid=(4,3,0) tid=(1,2,0)
GPGPU-Sim PTX: 12300000 instructions simulated : ctaid=(12,0,0) tid=(9,13,0)
GPGPU-Sim uArch: cycles simulated: 18000  inst.: 10427795 (ipc=579.3) sim_rate=372421 (inst/sec) elapsed = 0:0:00:28 / Sun Mar  8 15:57:20 2015
GPGPU-Sim PTX: 12400000 instructions simulated : ctaid=(2,5,0) tid=(7,0,0)
GPGPU-Sim PTX: 12500000 instructions simulated : ctaid=(7,0,0) tid=(11,12,0)
GPGPU-Sim PTX: 12600000 instructions simulated : ctaid=(8,4,0) tid=(9,11,0)
GPGPU-Sim PTX: 12700000 instructions simulated : ctaid=(15,4,0) tid=(9,15,0)
GPGPU-Sim uArch: cycles simulated: 18500  inst.: 10806162 (ipc=584.1) sim_rate=372626 (inst/sec) elapsed = 0:0:00:29 / Sun Mar  8 15:57:21 2015
GPGPU-Sim PTX: 12800000 instructions simulated : ctaid=(1,1,0) tid=(1,4,0)
GPGPU-Sim PTX: 12900000 instructions simulated : ctaid=(0,4,0) tid=(11,13,0)
GPGPU-Sim PTX: 13000000 instructions simulated : ctaid=(0,3,0) tid=(11,4,0)
GPGPU-Sim PTX: 13100000 instructions simulated : ctaid=(5,3,0) tid=(5,14,0)
GPGPU-Sim PTX: 13200000 instructions simulated : ctaid=(0,5,0) tid=(7,8,0)
GPGPU-Sim uArch: cycles simulated: 19000  inst.: 11183959 (ipc=588.6) sim_rate=372798 (inst/sec) elapsed = 0:0:00:30 / Sun Mar  8 15:57:22 2015
GPGPU-Sim PTX: 13300000 instructions simulated : ctaid=(3,2,0) tid=(13,4,0)
GPGPU-Sim PTX: 13400000 instructions simulated : ctaid=(10,0,0) tid=(3,4,0)
GPGPU-Sim PTX: 13500000 instructions simulated : ctaid=(0,2,0) tid=(3,15,0)
GPGPU-Sim PTX: 13600000 instructions simulated : ctaid=(4,2,0) tid=(13,12,0)
GPGPU-Sim uArch: cycles simulated: 19500  inst.: 11559766 (ipc=592.8) sim_rate=372895 (inst/sec) elapsed = 0:0:00:31 / Sun Mar  8 15:57:23 2015
GPGPU-Sim PTX: 13700000 instructions simulated : ctaid=(12,1,0) tid=(9,11,0)
GPGPU-Sim PTX: 13800000 instructions simulated : ctaid=(11,1,0) tid=(5,3,0)
GPGPU-Sim PTX: 13900000 instructions simulated : ctaid=(1,4,0) tid=(9,2,0)
GPGPU-Sim PTX: 14000000 instructions simulated : ctaid=(4,3,0) tid=(3,10,0)
GPGPU-Sim PTX: 14100000 instructions simulated : ctaid=(3,3,0) tid=(3,0,0)
GPGPU-Sim uArch: cycles simulated: 20000  inst.: 11935906 (ipc=596.8) sim_rate=372997 (inst/sec) elapsed = 0:0:00:32 / Sun Mar  8 15:57:24 2015
GPGPU-Sim PTX: 14200000 instructions simulated : ctaid=(8,1,0) tid=(5,3,0)
GPGPU-Sim PTX: 14300000 instructions simulated : ctaid=(7,3,0) tid=(1,6,0)
GPGPU-Sim PTX: 14400000 instructions simulated : ctaid=(3,0,0) tid=(3,15,0)
GPGPU-Sim PTX: 14500000 instructions simulated : ctaid=(8,4,0) tid=(15,12,0)
GPGPU-Sim uArch: cycles simulated: 20500  inst.: 12312210 (ipc=600.6) sim_rate=373097 (inst/sec) elapsed = 0:0:00:33 / Sun Mar  8 15:57:25 2015
GPGPU-Sim PTX: 14600000 instructions simulated : ctaid=(10,1,0) tid=(3,5,0)
GPGPU-Sim PTX: 14700000 instructions simulated : ctaid=(4,1,0) tid=(11,10,0)
GPGPU-Sim PTX: 14800000 instructions simulated : ctaid=(10,3,0) tid=(9,3,0)
GPGPU-Sim PTX: 14900000 instructions simulated : ctaid=(13,0,0) tid=(11,2,0)
GPGPU-Sim PTX: 15000000 instructions simulated : ctaid=(0,0,0) tid=(9,11,0)
GPGPU-Sim uArch: cycles simulated: 21000  inst.: 12685672 (ipc=604.1) sim_rate=373108 (inst/sec) elapsed = 0:0:00:34 / Sun Mar  8 15:57:26 2015
GPGPU-Sim PTX: 15100000 instructions simulated : ctaid=(1,2,0) tid=(3,11,0)
GPGPU-Sim PTX: 15200000 instructions simulated : ctaid=(11,2,0) tid=(12,5,0)
GPGPU-Sim PTX: 15300000 instructions simulated : ctaid=(11,0,0) tid=(7,7,0)
GPGPU-Sim PTX: 15400000 instructions simulated : ctaid=(8,2,0) tid=(15,2,0)
GPGPU-Sim PTX: 15500000 instructions simulated : ctaid=(7,0,0) tid=(9,3,0)
GPGPU-Sim PTX: 15600000 instructions simulated : ctaid=(12,2,0) tid=(11,8,0)
GPGPU-Sim PTX: 15700000 instructions simulated : ctaid=(10,2,0) tid=(15,13,0)
GPGPU-Sim PTX: 15800000 instructions simulated : ctaid=(6,2,0) tid=(5,1,0)
GPGPU-Sim PTX: 15900000 instructions simulated : ctaid=(11,0,0) tid=(9,4,0)
GPGPU-Sim uArch: cycles simulated: 22000  inst.: 13441360 (ipc=611.0) sim_rate=384038 (inst/sec) elapsed = 0:0:00:35 / Sun Mar  8 15:57:27 2015
GPGPU-Sim PTX: 16000000 instructions simulated : ctaid=(10,3,0) tid=(13,14,0)
GPGPU-Sim PTX: 16100000 instructions simulated : ctaid=(5,3,0) tid=(9,11,0)
GPGPU-Sim PTX: 16200000 instructions simulated : ctaid=(5,4,0) tid=(7,5,0)
GPGPU-Sim PTX: 16300000 instructions simulated : ctaid=(8,2,0) tid=(9,9,0)
GPGPU-Sim uArch: cycles simulated: 22500  inst.: 13819070 (ipc=614.2) sim_rate=383863 (inst/sec) elapsed = 0:0:00:36 / Sun Mar  8 15:57:28 2015
GPGPU-Sim PTX: 16400000 instructions simulated : ctaid=(9,4,0) tid=(1,3,0)
GPGPU-Sim PTX: 16500000 instructions simulated : ctaid=(4,4,0) tid=(11,0,0)
GPGPU-Sim PTX: 16600000 instructions simulated : ctaid=(4,2,0) tid=(11,8,0)
GPGPU-Sim PTX: 16700000 instructions simulated : ctaid=(8,3,0) tid=(1,10,0)
GPGPU-Sim PTX: 16800000 instructions simulated : ctaid=(5,0,0) tid=(15,9,0)
GPGPU-Sim uArch: cycles simulated: 23000  inst.: 14198798 (ipc=617.3) sim_rate=383751 (inst/sec) elapsed = 0:0:00:37 / Sun Mar  8 15:57:29 2015
GPGPU-Sim PTX: 16900000 instructions simulated : ctaid=(8,0,0) tid=(15,13,0)
GPGPU-Sim PTX: 17000000 instructions simulated : ctaid=(3,5,0) tid=(7,12,0)
GPGPU-Sim PTX: 17100000 instructions simulated : ctaid=(3,4,0) tid=(1,3,0)
GPGPU-Sim PTX: 17200000 instructions simulated : ctaid=(3,0,0) tid=(9,11,0)
GPGPU-Sim uArch: cycles simulated: 23500  inst.: 14578836 (ipc=620.4) sim_rate=373816 (inst/sec) elapsed = 0:0:00:39 / Sun Mar  8 15:57:31 2015
GPGPU-Sim PTX: 17300000 instructions simulated : ctaid=(0,3,0) tid=(11,11,0)
GPGPU-Sim PTX: 17400000 instructions simulated : ctaid=(1,3,0) tid=(5,0,0)
GPGPU-Sim PTX: 17500000 instructions simulated : ctaid=(13,1,0) tid=(3,2,0)
GPGPU-Sim PTX: 17600000 instructions simulated : ctaid=(0,4,0) tid=(11,9,0)
GPGPU-Sim PTX: 17700000 instructions simulated : ctaid=(6,2,0) tid=(3,9,0)
GPGPU-Sim uArch: cycles simulated: 24000  inst.: 14957764 (ipc=623.2) sim_rate=373944 (inst/sec) elapsed = 0:0:00:40 / Sun Mar  8 15:57:32 2015
GPGPU-Sim PTX: 17800000 instructions simulated : ctaid=(6,3,0) tid=(3,8,0)
GPGPU-Sim PTX: 17900000 instructions simulated : ctaid=(1,0,0) tid=(3,4,0)
GPGPU-Sim PTX: 18000000 instructions simulated : ctaid=(12,3,0) tid=(11,2,0)
GPGPU-Sim PTX: 18100000 instructions simulated : ctaid=(12,3,0) tid=(15,14,0)
GPGPU-Sim uArch: cycles simulated: 24500  inst.: 15335146 (ipc=625.9) sim_rate=374027 (inst/sec) elapsed = 0:0:00:41 / Sun Mar  8 15:57:33 2015
GPGPU-Sim PTX: 18200000 instructions simulated : ctaid=(9,4,0) tid=(5,14,0)
GPGPU-Sim PTX: 18300000 instructions simulated : ctaid=(6,4,0) tid=(9,14,0)
GPGPU-Sim PTX: 18400000 instructions simulated : ctaid=(9,2,0) tid=(3,3,0)
GPGPU-Sim PTX: 18500000 instructions simulated : ctaid=(11,1,0) tid=(13,6,0)
GPGPU-Sim PTX: 18600000 instructions simulated : ctaid=(5,1,0) tid=(1,1,0)
GPGPU-Sim uArch: cycles simulated: 25000  inst.: 15714604 (ipc=628.6) sim_rate=374157 (inst/sec) elapsed = 0:0:00:42 / Sun Mar  8 15:57:34 2015
GPGPU-Sim PTX: 18700000 instructions simulated : ctaid=(5,0,0) tid=(9,14,0)
GPGPU-Sim PTX: 18800000 instructions simulated : ctaid=(8,2,0) tid=(15,3,0)
GPGPU-Sim PTX: 18900000 instructions simulated : ctaid=(8,1,0) tid=(3,5,0)
GPGPU-Sim PTX: 19000000 instructions simulated : ctaid=(9,1,0) tid=(5,14,0)
GPGPU-Sim uArch: cycles simulated: 25500  inst.: 16092122 (ipc=631.1) sim_rate=374235 (inst/sec) elapsed = 0:0:00:43 / Sun Mar  8 15:57:35 2015
GPGPU-Sim PTX: 19100000 instructions simulated : ctaid=(2,3,0) tid=(5,4,0)
GPGPU-Sim PTX: 19200000 instructions simulated : ctaid=(12,4,0) tid=(11,2,0)
GPGPU-Sim PTX: 19300000 instructions simulated : ctaid=(0,5,0) tid=(9,12,0)
GPGPU-Sim PTX: 19400000 instructions simulated : ctaid=(15,4,0) tid=(11,0,0)
GPGPU-Sim PTX: 19500000 instructions simulated : ctaid=(10,0,0) tid=(13,3,0)
GPGPU-Sim uArch: cycles simulated: 26000  inst.: 16471490 (ipc=633.5) sim_rate=374352 (inst/sec) elapsed = 0:0:00:44 / Sun Mar  8 15:57:36 2015
GPGPU-Sim PTX: 19600000 instructions simulated : ctaid=(15,0,0) tid=(15,7,0)
GPGPU-Sim PTX: 19700000 instructions simulated : ctaid=(5,2,0) tid=(3,4,0)
GPGPU-Sim PTX: 19800000 instructions simulated : ctaid=(6,2,0) tid=(5,10,0)
GPGPU-Sim PTX: 19900000 instructions simulated : ctaid=(1,0,0) tid=(13,13,0)
GPGPU-Sim uArch: cycles simulated: 26500  inst.: 16849700 (ipc=635.8) sim_rate=374437 (inst/sec) elapsed = 0:0:00:45 / Sun Mar  8 15:57:37 2015
GPGPU-Sim PTX: 20000000 instructions simulated : ctaid=(2,0,0) tid=(13,13,0)
GPGPU-Sim PTX: 20100000 instructions simulated : ctaid=(3,1,0) tid=(1,11,0)
GPGPU-Sim PTX: 20200000 instructions simulated : ctaid=(9,1,0) tid=(5,15,0)
GPGPU-Sim PTX: 20300000 instructions simulated : ctaid=(9,2,0) tid=(15,6,0)
GPGPU-Sim PTX: 20400000 instructions simulated : ctaid=(15,3,0) tid=(9,13,0)
GPGPU-Sim uArch: cycles simulated: 27000  inst.: 17229228 (ipc=638.1) sim_rate=374548 (inst/sec) elapsed = 0:0:00:46 / Sun Mar  8 15:57:38 2015
GPGPU-Sim PTX: 20500000 instructions simulated : ctaid=(9,1,0) tid=(11,7,0)
GPGPU-Sim PTX: 20600000 instructions simulated : ctaid=(10,2,0) tid=(15,3,0)
GPGPU-Sim PTX: 20700000 instructions simulated : ctaid=(0,4,0) tid=(3,0,0)
GPGPU-Sim PTX: 20800000 instructions simulated : ctaid=(0,5,0) tid=(15,5,0)
GPGPU-Sim uArch: cycles simulated: 27500  inst.: 17606938 (ipc=640.3) sim_rate=374615 (inst/sec) elapsed = 0:0:00:47 / Sun Mar  8 15:57:39 2015
GPGPU-Sim PTX: 20900000 instructions simulated : ctaid=(6,1,0) tid=(1,9,0)
GPGPU-Sim PTX: 21000000 instructions simulated : ctaid=(6,0,0) tid=(3,4,0)
GPGPU-Sim PTX: 21100000 instructions simulated : ctaid=(6,3,0) tid=(5,10,0)
GPGPU-Sim PTX: 21200000 instructions simulated : ctaid=(6,4,0) tid=(13,1,0)
GPGPU-Sim PTX: 21300000 instructions simulated : ctaid=(14,1,0) tid=(7,9,0)
GPGPU-Sim uArch: cycles simulated: 28000  inst.: 17985818 (ipc=642.4) sim_rate=374704 (inst/sec) elapsed = 0:0:00:48 / Sun Mar  8 15:57:40 2015
GPGPU-Sim PTX: 21400000 instructions simulated : ctaid=(3,3,0) tid=(9,9,0)
GPGPU-Sim PTX: 21500000 instructions simulated : ctaid=(8,1,0) tid=(15,13,0)
GPGPU-Sim PTX: 21600000 instructions simulated : ctaid=(13,0,0) tid=(1,6,0)
GPGPU-Sim PTX: 21700000 instructions simulated : ctaid=(7,2,0) tid=(3,0,0)
GPGPU-Sim uArch: cycles simulated: 28500  inst.: 18363334 (ipc=644.3) sim_rate=374761 (inst/sec) elapsed = 0:0:00:49 / Sun Mar  8 15:57:41 2015
GPGPU-Sim PTX: 21800000 instructions simulated : ctaid=(9,4,0) tid=(11,11,0)
GPGPU-Sim PTX: 21900000 instructions simulated : ctaid=(0,2,0) tid=(5,9,0)
GPGPU-Sim PTX: 22000000 instructions simulated : ctaid=(8,2,0) tid=(15,4,0)
GPGPU-Sim PTX: 22100000 instructions simulated : ctaid=(11,4,0) tid=(1,9,0)
GPGPU-Sim PTX: 22200000 instructions simulated : ctaid=(12,2,0) tid=(5,7,0)
GPGPU-Sim uArch: cycles simulated: 29000  inst.: 18743689 (ipc=646.3) sim_rate=374873 (inst/sec) elapsed = 0:0:00:50 / Sun Mar  8 15:57:42 2015
GPGPU-Sim PTX: 22300000 instructions simulated : ctaid=(3,2,0) tid=(8,6,0)
GPGPU-Sim PTX: 22400000 instructions simulated : ctaid=(1,3,0) tid=(10,6,0)
GPGPU-Sim PTX: 22500000 instructions simulated : ctaid=(12,1,0) tid=(15,13,0)
GPGPU-Sim PTX: 22600000 instructions simulated : ctaid=(1,4,0) tid=(13,4,0)
GPGPU-Sim uArch: cycles simulated: 29500  inst.: 19124060 (ipc=648.3) sim_rate=374981 (inst/sec) elapsed = 0:0:00:51 / Sun Mar  8 15:57:43 2015
GPGPU-Sim PTX: 22700000 instructions simulated : ctaid=(14,1,0) tid=(15,12,0)
GPGPU-Sim PTX: 22800000 instructions simulated : ctaid=(15,3,0) tid=(3,4,0)
GPGPU-Sim PTX: 22900000 instructions simulated : ctaid=(8,5,0) tid=(9,10,0)
GPGPU-Sim PTX: 23000000 instructions simulated : ctaid=(12,0,0) tid=(1,13,0)
GPGPU-Sim PTX: 23100000 instructions simulated : ctaid=(1,0,0) tid=(11,14,0)
GPGPU-Sim uArch: cycles simulated: 30000  inst.: 19503674 (ipc=650.1) sim_rate=375070 (inst/sec) elapsed = 0:0:00:52 / Sun Mar  8 15:57:44 2015
GPGPU-Sim PTX: 23200000 instructions simulated : ctaid=(0,0,0) tid=(8,6,0)
GPGPU-Sim PTX: 23300000 instructions simulated : ctaid=(5,3,0) tid=(9,0,0)
GPGPU-Sim PTX: 23400000 instructions simulated : ctaid=(11,0,0) tid=(0,15,0)
GPGPU-Sim PTX: 23500000 instructions simulated : ctaid=(4,4,0) tid=(1,5,0)
GPGPU-Sim uArch: cycles simulated: 30500  inst.: 19882260 (ipc=651.9) sim_rate=375136 (inst/sec) elapsed = 0:0:00:53 / Sun Mar  8 15:57:45 2015
GPGPU-Sim PTX: 23600000 instructions simulated : ctaid=(2,3,0) tid=(15,3,0)
GPGPU-Sim PTX: 23700000 instructions simulated : ctaid=(2,4,0) tid=(13,8,0)
GPGPU-Sim PTX: 23800000 instructions simulated : ctaid=(8,4,0) tid=(5,15,0)
GPGPU-Sim PTX: 23900000 instructions simulated : ctaid=(9,2,0) tid=(3,1,0)
GPGPU-Sim PTX: 24000000 instructions simulated : ctaid=(8,3,0) tid=(15,8,0)
GPGPU-Sim uArch: cycles simulated: 31000  inst.: 20259819 (ipc=653.5) sim_rate=375181 (inst/sec) elapsed = 0:0:00:54 / Sun Mar  8 15:57:46 2015
GPGPU-Sim PTX: 24100000 instructions simulated : ctaid=(1,2,0) tid=(11,11,0)
GPGPU-Sim PTX: 24200000 instructions simulated : ctaid=(3,3,0) tid=(15,11,0)
GPGPU-Sim PTX: 24300000 instructions simulated : ctaid=(3,3,0) tid=(13,5,0)
GPGPU-Sim PTX: 24400000 instructions simulated : ctaid=(7,1,0) tid=(5,9,0)
GPGPU-Sim uArch: cycles simulated: 31500  inst.: 20637994 (ipc=655.2) sim_rate=375236 (inst/sec) elapsed = 0:0:00:55 / Sun Mar  8 15:57:47 2015
GPGPU-Sim PTX: 24500000 instructions simulated : ctaid=(13,1,0) tid=(3,15,0)
GPGPU-Sim PTX: 24600000 instructions simulated : ctaid=(0,5,0) tid=(3,15,0)
GPGPU-Sim PTX: 24700000 instructions simulated : ctaid=(2,3,0) tid=(7,15,0)
GPGPU-Sim PTX: 24800000 instructions simulated : ctaid=(9,5,0) tid=(3,4,0)
GPGPU-Sim PTX: 24900000 instructions simulated : ctaid=(7,1,0) tid=(11,6,0)
GPGPU-Sim uArch: cycles simulated: 32000  inst.: 21014738 (ipc=656.7) sim_rate=375263 (inst/sec) elapsed = 0:0:00:56 / Sun Mar  8 15:57:48 2015
GPGPU-Sim PTX: 25000000 instructions simulated : ctaid=(10,4,0) tid=(3,15,0)
GPGPU-Sim PTX: 25100000 instructions simulated : ctaid=(13,2,0) tid=(3,0,0)
GPGPU-Sim PTX: 25200000 instructions simulated : ctaid=(3,4,0) tid=(1,12,0)
GPGPU-Sim PTX: 25300000 instructions simulated : ctaid=(7,2,0) tid=(5,13,0)
GPGPU-Sim uArch: cycles simulated: 32500  inst.: 21392782 (ipc=658.2) sim_rate=375311 (inst/sec) elapsed = 0:0:00:57 / Sun Mar  8 15:57:49 2015
GPGPU-Sim PTX: 25400000 instructions simulated : ctaid=(12,1,0) tid=(15,7,0)
GPGPU-Sim PTX: 25500000 instructions simulated : ctaid=(2,3,0) tid=(7,7,0)
GPGPU-Sim PTX: 25600000 instructions simulated : ctaid=(7,5,0) tid=(1,1,0)
GPGPU-Sim PTX: 25700000 instructions simulated : ctaid=(14,1,0) tid=(3,10,0)
GPGPU-Sim PTX: 25800000 instructions simulated : ctaid=(13,3,0) tid=(5,12,0)
GPGPU-Sim uArch: cycles simulated: 33000  inst.: 21771966 (ipc=659.8) sim_rate=375378 (inst/sec) elapsed = 0:0:00:58 / Sun Mar  8 15:57:50 2015
GPGPU-Sim PTX: 25900000 instructions simulated : ctaid=(7,1,0) tid=(11,2,0)
GPGPU-Sim PTX: 26000000 instructions simulated : ctaid=(14,1,0) tid=(9,0,0)
GPGPU-Sim PTX: 26100000 instructions simulated : ctaid=(10,0,0) tid=(15,6,0)
GPGPU-Sim PTX: 26200000 instructions simulated : ctaid=(8,2,0) tid=(5,12,0)
GPGPU-Sim uArch: cycles simulated: 33500  inst.: 22148972 (ipc=661.2) sim_rate=375406 (inst/sec) elapsed = 0:0:00:59 / Sun Mar  8 15:57:51 2015
GPGPU-Sim PTX: 26300000 instructions simulated : ctaid=(3,4,0) tid=(5,1,0)
GPGPU-Sim PTX: 26400000 instructions simulated : ctaid=(10,0,0) tid=(7,9,0)
GPGPU-Sim PTX: 26500000 instructions simulated : ctaid=(6,3,0) tid=(13,14,0)
GPGPU-Sim PTX: 26600000 instructions simulated : ctaid=(0,2,0) tid=(9,13,0)
GPGPU-Sim PTX: 26700000 instructions simulated : ctaid=(1,3,0) tid=(11,1,0)
GPGPU-Sim uArch: cycles simulated: 34000  inst.: 22528554 (ipc=662.6) sim_rate=375475 (inst/sec) elapsed = 0:0:01:00 / Sun Mar  8 15:57:52 2015
GPGPU-Sim PTX: 26800000 instructions simulated : ctaid=(5,0,0) tid=(15,8,0)
GPGPU-Sim PTX: 26900000 instructions simulated : ctaid=(15,2,0) tid=(1,8,0)
GPGPU-Sim PTX: 27000000 instructions simulated : ctaid=(5,0,0) tid=(11,5,0)
GPGPU-Sim PTX: 27100000 instructions simulated : ctaid=(5,4,0) tid=(5,4,0)
GPGPU-Sim uArch: cycles simulated: 34500  inst.: 22907508 (ipc=664.0) sim_rate=369475 (inst/sec) elapsed = 0:0:01:02 / Sun Mar  8 15:57:54 2015
GPGPU-Sim PTX: 27200000 instructions simulated : ctaid=(3,1,0) tid=(5,9,0)
GPGPU-Sim PTX: 27300000 instructions simulated : ctaid=(4,4,0) tid=(5,2,0)
GPGPU-Sim PTX: 27400000 instructions simulated : ctaid=(15,3,0) tid=(15,7,0)
GPGPU-Sim PTX: 27500000 instructions simulated : ctaid=(5,4,0) tid=(7,15,0)
GPGPU-Sim PTX: 27600000 instructions simulated : ctaid=(5,3,0) tid=(15,11,0)
GPGPU-Sim uArch: cycles simulated: 35000  inst.: 23286556 (ipc=665.3) sim_rate=369627 (inst/sec) elapsed = 0:0:01:03 / Sun Mar  8 15:57:55 2015
GPGPU-Sim PTX: 27700000 instructions simulated : ctaid=(9,5,0) tid=(9,5,0)
GPGPU-Sim PTX: 27800000 instructions simulated : ctaid=(3,2,0) tid=(1,2,0)
GPGPU-Sim PTX: 27900000 instructions simulated : ctaid=(1,0,0) tid=(5,13,0)
GPGPU-Sim PTX: 28000000 instructions simulated : ctaid=(3,1,0) tid=(9,1,0)
GPGPU-Sim uArch: cycles simulated: 35500  inst.: 23664964 (ipc=666.6) sim_rate=369765 (inst/sec) elapsed = 0:0:01:04 / Sun Mar  8 15:57:56 2015
GPGPU-Sim PTX: 28100000 instructions simulated : ctaid=(7,3,0) tid=(11,11,0)
GPGPU-Sim PTX: 28200000 instructions simulated : ctaid=(8,5,0) tid=(1,6,0)
GPGPU-Sim PTX: 28300000 instructions simulated : ctaid=(9,2,0) tid=(9,1,0)
GPGPU-Sim PTX: 28400000 instructions simulated : ctaid=(11,0,0) tid=(15,7,0)
GPGPU-Sim PTX: 28500000 instructions simulated : ctaid=(5,5,0) tid=(13,12,0)
GPGPU-Sim uArch: cycles simulated: 36000  inst.: 24042626 (ipc=667.9) sim_rate=369886 (inst/sec) elapsed = 0:0:01:05 / Sun Mar  8 15:57:57 2015
GPGPU-Sim PTX: 28600000 instructions simulated : ctaid=(13,2,0) tid=(9,1,0)
GPGPU-Sim PTX: 28700000 instructions simulated : ctaid=(10,1,0) tid=(11,1,0)
GPGPU-Sim PTX: 28800000 instructions simulated : ctaid=(2,2,0) tid=(7,2,0)
GPGPU-Sim PTX: 28900000 instructions simulated : ctaid=(8,1,0) tid=(9,1,0)
GPGPU-Sim uArch: cycles simulated: 36500  inst.: 24421412 (ipc=669.1) sim_rate=370021 (inst/sec) elapsed = 0:0:01:06 / Sun Mar  8 15:57:58 2015
GPGPU-Sim PTX: 29000000 instructions simulated : ctaid=(1,4,0) tid=(11,4,0)
GPGPU-Sim PTX: 29100000 instructions simulated : ctaid=(8,4,0) tid=(1,1,0)
GPGPU-Sim PTX: 29200000 instructions simulated : ctaid=(4,4,0) tid=(11,3,0)
GPGPU-Sim PTX: 29300000 instructions simulated : ctaid=(13,2,0) tid=(1,7,0)
GPGPU-Sim PTX: 29400000 instructions simulated : ctaid=(8,2,0) tid=(15,3,0)
GPGPU-Sim uArch: cycles simulated: 37000  inst.: 24799362 (ipc=670.3) sim_rate=370139 (inst/sec) elapsed = 0:0:01:07 / Sun Mar  8 15:57:59 2015
GPGPU-Sim PTX: 29500000 instructions simulated : ctaid=(4,5,0) tid=(3,2,0)
GPGPU-Sim PTX: 29600000 instructions simulated : ctaid=(9,5,0) tid=(1,3,0)
GPGPU-Sim PTX: 29700000 instructions simulated : ctaid=(5,3,0) tid=(15,0,0)
GPGPU-Sim PTX: 29800000 instructions simulated : ctaid=(6,2,0) tid=(7,10,0)
GPGPU-Sim PTX: 29900000 instructions simulated : ctaid=(9,1,0) tid=(15,6,0)
GPGPU-Sim uArch: cycles simulated: 37500  inst.: 25179044 (ipc=671.4) sim_rate=370280 (inst/sec) elapsed = 0:0:01:08 / Sun Mar  8 15:58:00 2015
GPGPU-Sim PTX: 30000000 instructions simulated : ctaid=(3,5,0) tid=(9,2,0)
GPGPU-Sim PTX: 30100000 instructions simulated : ctaid=(3,3,0) tid=(15,13,0)
GPGPU-Sim PTX: 30200000 instructions simulated : ctaid=(7,1,0) tid=(15,1,0)
GPGPU-Sim PTX: 30300000 instructions simulated : ctaid=(15,4,0) tid=(1,12,0)
GPGPU-Sim uArch: cycles simulated: 38000  inst.: 25556842 (ipc=672.5) sim_rate=370389 (inst/sec) elapsed = 0:0:01:09 / Sun Mar  8 15:58:01 2015
GPGPU-Sim PTX: 30400000 instructions simulated : ctaid=(1,5,0) tid=(7,4,0)
GPGPU-Sim PTX: 30500000 instructions simulated : ctaid=(13,1,0) tid=(13,13,0)
GPGPU-Sim PTX: 30600000 instructions simulated : ctaid=(6,5,0) tid=(3,10,0)
GPGPU-Sim PTX: 30700000 instructions simulated : ctaid=(8,2,0) tid=(3,15,0)
GPGPU-Sim PTX: 30800000 instructions simulated : ctaid=(8,0,0) tid=(1,11,0)
GPGPU-Sim uArch: cycles simulated: 38500  inst.: 25938198 (ipc=673.7) sim_rate=370545 (inst/sec) elapsed = 0:0:01:10 / Sun Mar  8 15:58:02 2015
GPGPU-Sim uArch: Shader 1 finished CTA #1 (38548,0), 5 CTAs running
GPGPU-Sim uArch: core:  1, cta: 1 initialized @(38549,0)
GPGPU-Sim PTX: 30900000 instructions simulated : ctaid=(3,5,0) tid=(9,0,0)
GPGPU-Sim PTX: 31000000 instructions simulated : ctaid=(1,4,0) tid=(15,8,0)
GPGPU-Sim PTX: 31100000 instructions simulated : ctaid=(0,3,0) tid=(8,11,0)
GPGPU-Sim PTX: 31200000 instructions simulated : ctaid=(15,4,0) tid=(3,6,0)
GPGPU-Sim uArch: cycles simulated: 39000  inst.: 26315970 (ipc=674.8) sim_rate=370647 (inst/sec) elapsed = 0:0:01:11 / Sun Mar  8 15:58:03 2015
GPGPU-Sim PTX: 31300000 instructions simulated : ctaid=(8,0,0) tid=(8,9,0)
GPGPU-Sim PTX: 31400000 instructions simulated : ctaid=(5,5,0) tid=(7,15,0)
GPGPU-Sim PTX: 31500000 instructions simulated : ctaid=(7,5,0) tid=(13,2,0)
GPGPU-Sim PTX: 31600000 instructions simulated : ctaid=(7,1,0) tid=(3,8,0)
GPGPU-Sim PTX: 31700000 instructions simulated : ctaid=(5,1,0) tid=(8,5,0)
GPGPU-Sim uArch: cycles simulated: 39500  inst.: 26693659 (ipc=675.8) sim_rate=370745 (inst/sec) elapsed = 0:0:01:12 / Sun Mar  8 15:58:04 2015
GPGPU-Sim PTX: 31800000 instructions simulated : ctaid=(1,2,0) tid=(12,14,0)
GPGPU-Sim uArch: Shader 2 finished CTA #0 (39675,0), 5 CTAs running
GPGPU-Sim uArch: core:  2, cta: 0 initialized @(39676,0)
GPGPU-Sim PTX: 31900000 instructions simulated : ctaid=(11,2,0) tid=(8,12,0)
GPGPU-Sim uArch: Shader 7 finished CTA #3 (39763,0), 5 CTAs running
GPGPU-Sim uArch: core:  7, cta: 3 initialized @(39764,0)
GPGPU-Sim PTX: 32000000 instructions simulated : ctaid=(7,3,0) tid=(2,14,0)
GPGPU-Sim PTX: 32100000 instructions simulated : ctaid=(9,0,0) tid=(4,14,0)
GPGPU-Sim uArch: cycles simulated: 40000  inst.: 27075435 (ipc=676.9) sim_rate=370896 (inst/sec) elapsed = 0:0:01:13 / Sun Mar  8 15:58:05 2015
GPGPU-Sim PTX: 32200000 instructions simulated : ctaid=(14,0,0) tid=(3,6,0)
GPGPU-Sim uArch: Shader 0 finished CTA #3 (40147,0), 5 CTAs running
GPGPU-Sim uArch: core:  0, cta: 3 initialized @(40148,0)
GPGPU-Sim PTX: 32300000 instructions simulated : ctaid=(7,4,0) tid=(9,11,0)
GPGPU-Sim uArch: Shader 8 finished CTA #3 (40176,0), 5 CTAs running
GPGPU-Sim uArch: core:  8, cta: 3 initialized @(40177,0)
GPGPU-Sim PTX: 32400000 instructions simulated : ctaid=(1,1,0) tid=(4,3,0)
GPGPU-Sim PTX: 32500000 instructions simulated : ctaid=(13,3,0) tid=(6,1,0)
GPGPU-Sim PTX: 32600000 instructions simulated : ctaid=(2,5,0) tid=(6,2,0)
GPGPU-Sim uArch: cycles simulated: 40500  inst.: 27445749 (ipc=677.7) sim_rate=370888 (inst/sec) elapsed = 0:0:01:14 / Sun Mar  8 15:58:06 2015
GPGPU-Sim PTX: 32700000 instructions simulated : ctaid=(4,5,0) tid=(15,5,0)
GPGPU-Sim PTX: 32800000 instructions simulated : ctaid=(6,0,0) tid=(6,6,0)
GPGPU-Sim PTX: 32900000 instructions simulated : ctaid=(15,3,0) tid=(3,15,0)
GPGPU-Sim PTX: 33000000 instructions simulated : ctaid=(11,0,0) tid=(10,14,0)
GPGPU-Sim PTX: 33100000 instructions simulated : ctaid=(14,2,0) tid=(5,6,0)
GPGPU-Sim PTX: 33200000 instructions simulated : ctaid=(10,3,0) tid=(15,2,0)
GPGPU-Sim uArch: Shader 6 finished CTA #3 (41209,0), 5 CTAs running
GPGPU-Sim uArch: core:  6, cta: 3 initialized @(41210,0)
GPGPU-Sim uArch: Shader 4 finished CTA #2 (41255,0), 5 CTAs running
GPGPU-Sim uArch: core:  4, cta: 2 initialized @(41256,0)
GPGPU-Sim PTX: 33300000 instructions simulated : ctaid=(4,5,0) tid=(4,4,0)
GPGPU-Sim uArch: Shader 3 finished CTA #2 (41331,0), 5 CTAs running
GPGPU-Sim uArch: core:  3, cta: 2 initialized @(41332,0)
GPGPU-Sim PTX: 33400000 instructions simulated : ctaid=(4,1,0) tid=(7,15,0)
GPGPU-Sim uArch: Shader 10 finished CTA #2 (41494,0), 5 CTAs running
GPGPU-Sim uArch: core: 10, cta: 2 initialized @(41495,0)
GPGPU-Sim uArch: cycles simulated: 41500  inst.: 28193083 (ipc=679.4) sim_rate=375907 (inst/sec) elapsed = 0:0:01:15 / Sun Mar  8 15:58:07 2015
GPGPU-Sim uArch: Shader 9 finished CTA #3 (41513,0), 5 CTAs running
GPGPU-Sim uArch: core:  9, cta: 3 initialized @(41514,0)
GPGPU-Sim PTX: 33500000 instructions simulated : ctaid=(13,2,0) tid=(6,2,0)
GPGPU-Sim PTX: 33600000 instructions simulated : ctaid=(11,4,0) tid=(3,0,0)
GPGPU-Sim PTX: 33700000 instructions simulated : ctaid=(2,5,0) tid=(9,5,0)
GPGPU-Sim PTX: 33800000 instructions simulated : ctaid=(9,5,0) tid=(5,7,0)
GPGPU-Sim uArch: Shader 8 finished CTA #0 (41952,0), 5 CTAs running
GPGPU-Sim uArch: core:  8, cta: 0 initialized @(41953,0)
GPGPU-Sim PTX: 33900000 instructions simulated : ctaid=(14,0,0) tid=(3,6,0)
GPGPU-Sim uArch: Shader 1 finished CTA #0 (41994,0), 5 CTAs running
GPGPU-Sim uArch: core:  1, cta: 0 initialized @(41995,0)
GPGPU-Sim uArch: cycles simulated: 42000  inst.: 28564757 (ipc=680.1) sim_rate=375852 (inst/sec) elapsed = 0:0:01:16 / Sun Mar  8 15:58:08 2015
GPGPU-Sim PTX: 34000000 instructions simulated : ctaid=(4,0,0) tid=(6,8,0)
GPGPU-Sim PTX: 34100000 instructions simulated : ctaid=(2,4,0) tid=(12,4,0)
GPGPU-Sim uArch: Shader 13 finished CTA #1 (42248,0), 5 CTAs running
GPGPU-Sim uArch: core: 13, cta: 1 initialized @(42249,0)
GPGPU-Sim PTX: 34200000 instructions simulated : ctaid=(9,2,0) tid=(10,6,0)
GPGPU-Sim uArch: Shader 2 finished CTA #2 (42333,0), 5 CTAs running
GPGPU-Sim uArch: core:  2, cta: 2 initialized @(42334,0)
GPGPU-Sim uArch: Shader 11 finished CTA #2 (42371,0), 5 CTAs running
GPGPU-Sim uArch: core: 11, cta: 2 initialized @(42372,0)
GPGPU-Sim PTX: 34300000 instructions simulated : ctaid=(7,5,0) tid=(15,15,0)
GPGPU-Sim uArch: cycles simulated: 42500  inst.: 28933730 (ipc=680.8) sim_rate=375762 (inst/sec) elapsed = 0:0:01:17 / Sun Mar  8 15:58:09 2015
GPGPU-Sim PTX: 34400000 instructions simulated : ctaid=(14,0,0) tid=(2,11,0)
GPGPU-Sim uArch: Shader 13 finished CTA #0 (42625,0), 5 CTAs running
GPGPU-Sim uArch: core: 13, cta: 0 initialized @(42626,0)
GPGPU-Sim PTX: 34500000 instructions simulated : ctaid=(14,2,0) tid=(9,10,0)
GPGPU-Sim uArch: Shader 14 finished CTA #3 (42749,0), 5 CTAs running
GPGPU-Sim uArch: core: 14, cta: 3 initialized @(42750,0)
GPGPU-Sim PTX: 34600000 instructions simulated : ctaid=(6,3,0) tid=(5,7,0)
GPGPU-Sim PTX: 34700000 instructions simulated : ctaid=(14,0,0) tid=(8,13,0)
GPGPU-Sim uArch: Shader 1 finished CTA #3 (42982,0), 5 CTAs running
GPGPU-Sim uArch: core:  1, cta: 3 initialized @(42983,0)
GPGPU-Sim uArch: cycles simulated: 43000  inst.: 29291952 (ipc=681.2) sim_rate=375537 (inst/sec) elapsed = 0:0:01:18 / Sun Mar  8 15:58:10 2015
GPGPU-Sim PTX: 34800000 instructions simulated : ctaid=(7,3,0) tid=(5,8,0)
GPGPU-Sim PTX: 34900000 instructions simulated : ctaid=(4,5,0) tid=(8,1,0)
GPGPU-Sim PTX: 35000000 instructions simulated : ctaid=(7,3,0) tid=(3,12,0)
GPGPU-Sim uArch: Shader 3 finished CTA #3 (43317,0), 5 CTAs running
GPGPU-Sim uArch: core:  3, cta: 3 initialized @(43318,0)
GPGPU-Sim PTX: 35100000 instructions simulated : ctaid=(6,0,0) tid=(10,14,0)
GPGPU-Sim PTX: 35200000 instructions simulated : ctaid=(8,5,0) tid=(14,14,0)
GPGPU-Sim uArch: cycles simulated: 43500  inst.: 29642776 (ipc=681.4) sim_rate=375225 (inst/sec) elapsed = 0:0:01:19 / Sun Mar  8 15:58:11 2015
GPGPU-Sim PTX: 35300000 instructions simulated : ctaid=(11,0,0) tid=(7,5,0)
GPGPU-Sim uArch: Shader 5 finished CTA #3 (43712,0), 5 CTAs running
GPGPU-Sim uArch: core:  5, cta: 3 initialized @(43713,0)
GPGPU-Sim PTX: 35400000 instructions simulated : ctaid=(14,2,0) tid=(15,1,0)
GPGPU-Sim uArch: Shader 9 finished CTA #1 (43834,0), 5 CTAs running
GPGPU-Sim uArch: core:  9, cta: 1 initialized @(43835,0)
GPGPU-Sim uArch: Shader 9 finished CTA #2 (43862,0), 5 CTAs running
GPGPU-Sim uArch: core:  9, cta: 2 initialized @(43863,0)
GPGPU-Sim uArch: Shader 14 finished CTA #2 (43863,0), 5 CTAs running
GPGPU-Sim uArch: core: 14, cta: 2 initialized @(43864,0)
GPGPU-Sim PTX: 35500000 instructions simulated : ctaid=(2,5,0) tid=(3,7,0)
GPGPU-Sim uArch: Shader 0 finished CTA #1 (43897,0), 5 CTAs running
GPGPU-Sim uArch: core:  0, cta: 1 initialized @(43898,0)
GPGPU-Sim uArch: Shader 12 finished CTA #2 (43956,0), 5 CTAs running
GPGPU-Sim uArch: core: 12, cta: 2 initialized @(43957,0)
GPGPU-Sim uArch: Shader 9 finished CTA #0 (43966,0), 5 CTAs running
GPGPU-Sim uArch: core:  9, cta: 0 initialized @(43967,0)
GPGPU-Sim uArch: cycles simulated: 44000  inst.: 29979641 (ipc=681.4) sim_rate=374745 (inst/sec) elapsed = 0:0:01:20 / Sun Mar  8 15:58:12 2015
GPGPU-Sim uArch: Shader 5 finished CTA #2 (44006,0), 5 CTAs running
GPGPU-Sim uArch: core:  5, cta: 2 initialized @(44007,0)
GPGPU-Sim PTX: 35600000 instructions simulated : ctaid=(2,5,0) tid=(8,0,0)
GPGPU-Sim uArch: Shader 12 finished CTA #0 (44098,0), 5 CTAs running
GPGPU-Sim uArch: core: 12, cta: 0 initialized @(44099,0)
GPGPU-Sim PTX: 35700000 instructions simulated : ctaid=(9,5,0) tid=(14,13,0)
GPGPU-Sim uArch: Shader 12 finished CTA #1 (44138,0), 5 CTAs running
GPGPU-Sim uArch: core: 12, cta: 1 initialized @(44139,0)
GPGPU-Sim uArch: Shader 3 finished CTA #1 (44144,0), 5 CTAs running
GPGPU-Sim uArch: core:  3, cta: 1 initialized @(44145,0)
GPGPU-Sim uArch: Shader 6 finished CTA #0 (44162,0), 5 CTAs running
GPGPU-Sim uArch: core:  6, cta: 0 initialized @(44163,0)
GPGPU-Sim uArch: Shader 6 finished CTA #2 (44163,0), 5 CTAs running
GPGPU-Sim uArch: core:  6, cta: 2 initialized @(44164,0)
GPGPU-Sim uArch: Shader 4 finished CTA #3 (44174,0), 5 CTAs running
GPGPU-Sim uArch: core:  4, cta: 3 initialized @(44175,0)
GPGPU-Sim uArch: Shader 8 finished CTA #2 (44193,0), 5 CTAs running
GPGPU-Sim uArch: core:  8, cta: 2 initialized @(44194,0)
GPGPU-Sim uArch: Shader 14 finished CTA #0 (44197,0), 5 CTAs running
GPGPU-Sim uArch: core: 14, cta: 0 initialized @(44198,0)
GPGPU-Sim uArch: Shader 7 finished CTA #1 (44205,0), 5 CTAs running
GPGPU-Sim uArch: core:  7, cta: 1 initialized @(44206,0)
GPGPU-Sim uArch: Shader 11 finished CTA #1 (44243,0), 5 CTAs running
GPGPU-Sim uArch: core: 11, cta: 1 initialized @(44244,0)
GPGPU-Sim uArch: Shader 4 finished CTA #0 (44253,0), 5 CTAs running
GPGPU-Sim uArch: core:  4, cta: 0 initialized @(44254,0)
GPGPU-Sim PTX: 35800000 instructions simulated : ctaid=(12,1,0) tid=(12,2,0)
GPGPU-Sim uArch: Shader 1 finished CTA #2 (44349,0), 5 CTAs running
GPGPU-Sim uArch: core:  1, cta: 2 initialized @(44350,0)
GPGPU-Sim uArch: Shader 0 finished CTA #0 (44357,0), 5 CTAs running
GPGPU-Sim uArch: core:  0, cta: 0 initialized @(44358,0)
GPGPU-Sim uArch: Shader 13 finished CTA #3 (44372,0), 5 CTAs running
GPGPU-Sim uArch: core: 13, cta: 3 initialized @(44373,0)
GPGPU-Sim PTX: 35900000 instructions simulated : ctaid=(6,3,0) tid=(12,9,0)
GPGPU-Sim uArch: Shader 0 finished CTA #2 (44465,0), 5 CTAs running
GPGPU-Sim uArch: core:  0, cta: 2 initialized @(44466,0)
GPGPU-Sim uArch: cycles simulated: 44500  inst.: 30327010 (ipc=681.5) sim_rate=374407 (inst/sec) elapsed = 0:0:01:21 / Sun Mar  8 15:58:13 2015
GPGPU-Sim PTX: 36000000 instructions simulated : ctaid=(4,5,0) tid=(10,13,0)
GPGPU-Sim uArch: Shader 1 finished CTA #4 (44601,0), 5 CTAs running
GPGPU-Sim uArch: core:  1, cta: 4 initialized @(44602,0)
GPGPU-Sim PTX: 36100000 instructions simulated : ctaid=(14,3,0) tid=(5,12,0)
GPGPU-Sim uArch: Shader 10 finished CTA #0 (44659,0), 5 CTAs running
GPGPU-Sim uArch: core: 10, cta: 0 initialized @(44660,0)
GPGPU-Sim uArch: Shader 7 finished CTA #0 (44680,0), 5 CTAs running
GPGPU-Sim uArch: core:  7, cta: 0 initialized @(44681,0)
GPGPU-Sim uArch: Shader 2 finished CTA #4 (44692,0), 5 CTAs running
GPGPU-Sim uArch: Shader 12 finished CTA #4 (44692,0), 5 CTAs running
GPGPU-Sim uArch: core: 12, cta: 4 initialized @(44693,0)
GPGPU-Sim uArch: core:  2, cta: 4 initialized @(44693,0)
GPGPU-Sim uArch: Shader 4 finished CTA #1 (44695,0), 5 CTAs running
GPGPU-Sim uArch: core:  4, cta: 1 initialized @(44696,0)
GPGPU-Sim uArch: Shader 5 finished CTA #1 (44759,0), 5 CTAs running
GPGPU-Sim uArch: core:  5, cta: 1 initialized @(44760,0)
GPGPU-Sim PTX: 36200000 instructions simulated : ctaid=(6,8,0) tid=(11,14,0)
GPGPU-Sim uArch: Shader 10 finished CTA #1 (44859,0), 5 CTAs running
GPGPU-Sim uArch: core: 10, cta: 1 initialized @(44860,0)
GPGPU-Sim PTX: 36300000 instructions simulated : ctaid=(4,1,0) tid=(14,15,0)
GPGPU-Sim PTX: 36400000 instructions simulated : ctaid=(9,5,0) tid=(0,1,0)
GPGPU-Sim uArch: Shader 7 finished CTA #2 (45115,0), 5 CTAs running
GPGPU-Sim uArch: core:  7, cta: 2 initialized @(45116,0)
GPGPU-Sim uArch: Shader 8 finished CTA #1 (45194,0), 5 CTAs running
GPGPU-Sim uArch: core:  8, cta: 1 initialized @(45195,0)
GPGPU-Sim uArch: Shader 5 finished CTA #0 (45197,0), 5 CTAs running
GPGPU-Sim uArch: core:  5, cta: 0 initialized @(45198,0)
GPGPU-Sim PTX: 36500000 instructions simulated : ctaid=(6,5,0) tid=(8,15,0)
GPGPU-Sim uArch: Shader 14 finished CTA #1 (45257,0), 5 CTAs running
GPGPU-Sim uArch: core: 14, cta: 1 initialized @(45258,0)
GPGPU-Sim PTX: 36600000 instructions simulated : ctaid=(14,2,0) tid=(3,9,0)
GPGPU-Sim uArch: Shader 13 finished CTA #4 (45408,0), 5 CTAs running
GPGPU-Sim uArch: core: 13, cta: 4 initialized @(45409,0)
GPGPU-Sim uArch: Shader 3 finished CTA #0 (45439,0), 5 CTAs running
GPGPU-Sim uArch: core:  3, cta: 0 initialized @(45440,0)
GPGPU-Sim uArch: cycles simulated: 45500  inst.: 30928772 (ipc=679.8) sim_rate=377180 (inst/sec) elapsed = 0:0:01:22 / Sun Mar  8 15:58:14 2015
GPGPU-Sim PTX: 36700000 instructions simulated : ctaid=(6,5,0) tid=(4,2,0)
GPGPU-Sim uArch: Shader 2 finished CTA #1 (45517,0), 5 CTAs running
GPGPU-Sim uArch: core:  2, cta: 1 initialized @(45518,0)
GPGPU-Sim uArch: Shader 12 finished CTA #3 (45553,0), 5 CTAs running
GPGPU-Sim uArch: core: 12, cta: 3 initialized @(45554,0)
GPGPU-Sim PTX: 36800000 instructions simulated : ctaid=(11,4,0) tid=(8,9,0)
GPGPU-Sim uArch: Shader 11 finished CTA #0 (45694,0), 5 CTAs running
GPGPU-Sim uArch: core: 11, cta: 0 initialized @(45695,0)
GPGPU-Sim uArch: Shader 10 finished CTA #4 (45708,0), 5 CTAs running
GPGPU-Sim uArch: core: 10, cta: 4 initialized @(45709,0)
GPGPU-Sim uArch: Shader 13 finished CTA #2 (45757,0), 5 CTAs running
GPGPU-Sim uArch: core: 13, cta: 2 initialized @(45758,0)
GPGPU-Sim PTX: 36900000 instructions simulated : ctaid=(1,5,0) tid=(12,3,0)
GPGPU-Sim uArch: Shader 14 finished CTA #4 (45825,0), 5 CTAs running
GPGPU-Sim uArch: core: 14, cta: 4 initialized @(45826,0)
GPGPU-Sim uArch: Shader 4 finished CTA #4 (45887,0), 5 CTAs running
GPGPU-Sim uArch: core:  4, cta: 4 initialized @(45888,0)
GPGPU-Sim PTX: 37000000 instructions simulated : ctaid=(5,5,0) tid=(11,11,0)
GPGPU-Sim uArch: Shader 6 finished CTA #1 (45974,0), 5 CTAs running
GPGPU-Sim uArch: core:  6, cta: 1 initialized @(45975,0)
GPGPU-Sim uArch: cycles simulated: 46000  inst.: 31216259 (ipc=678.6) sim_rate=376099 (inst/sec) elapsed = 0:0:01:23 / Sun Mar  8 15:58:15 2015
GPGPU-Sim uArch: Shader 11 finished CTA #4 (46105,0), 5 CTAs running
GPGPU-Sim uArch: core: 11, cta: 4 initialized @(46106,0)
GPGPU-Sim PTX: 37100000 instructions simulated : ctaid=(0,5,0) tid=(6,13,0)
GPGPU-Sim uArch: Shader 6 finished CTA #4 (46222,0), 5 CTAs running
GPGPU-Sim uArch: core:  6, cta: 4 initialized @(46223,0)
GPGPU-Sim PTX: 37200000 instructions simulated : ctaid=(14,2,0) tid=(2,10,0)
GPGPU-Sim PTX: 37300000 instructions simulated : ctaid=(15,4,0) tid=(4,2,0)
GPGPU-Sim uArch: Shader 11 finished CTA #3 (46451,0), 5 CTAs running
GPGPU-Sim uArch: core: 11, cta: 3 initialized @(46452,0)
GPGPU-Sim uArch: Shader 2 finished CTA #3 (46485,0), 5 CTAs running
GPGPU-Sim uArch: core:  2, cta: 3 initialized @(46486,0)
GPGPU-Sim uArch: cycles simulated: 46500  inst.: 31483120 (ipc=677.1) sim_rate=374799 (inst/sec) elapsed = 0:0:01:24 / Sun Mar  8 15:58:16 2015
GPGPU-Sim uArch: Shader 10 finished CTA #3 (46506,0), 5 CTAs running
GPGPU-Sim uArch: core: 10, cta: 3 initialized @(46507,0)
GPGPU-Sim uArch: Shader 5 finished CTA #4 (46590,0), 5 CTAs running
GPGPU-Sim uArch: core:  5, cta: 4 initialized @(46591,0)
GPGPU-Sim PTX: 37400000 instructions simulated : ctaid=(14,4,0) tid=(10,2,0)
GPGPU-Sim uArch: Shader 9 finished CTA #4 (46701,0), 5 CTAs running
GPGPU-Sim uArch: core:  9, cta: 4 initialized @(46702,0)
GPGPU-Sim PTX: 37500000 instructions simulated : ctaid=(11,4,0) tid=(8,2,0)
GPGPU-Sim PTX: 37600000 instructions simulated : ctaid=(10,6,0) tid=(4,5,0)
GPGPU-Sim PTX: 37700000 instructions simulated : ctaid=(15,5,0) tid=(8,14,0)
GPGPU-Sim PTX: 37800000 instructions simulated : ctaid=(9,5,0) tid=(15,15,0)
GPGPU-Sim PTX: 37900000 instructions simulated : ctaid=(3,6,0) tid=(3,11,0)
GPGPU-Sim PTX: 38000000 instructions simulated : ctaid=(5,6,0) tid=(6,3,0)
GPGPU-Sim uArch: cycles simulated: 47500  inst.: 32059842 (ipc=674.9) sim_rate=377174 (inst/sec) elapsed = 0:0:01:25 / Sun Mar  8 15:58:17 2015
GPGPU-Sim uArch: Shader 8 finished CTA #4 (47526,0), 5 CTAs running
GPGPU-Sim uArch: core:  8, cta: 4 initialized @(47527,0)
GPGPU-Sim uArch: Shader 0 finished CTA #4 (47605,0), 5 CTAs running
GPGPU-Sim uArch: core:  0, cta: 4 initialized @(47606,0)
GPGPU-Sim PTX: 38100000 instructions simulated : ctaid=(11,4,0) tid=(6,4,0)
GPGPU-Sim PTX: 38200000 instructions simulated : ctaid=(0,5,0) tid=(11,7,0)
GPGPU-Sim uArch: Shader 7 finished CTA #4 (47881,0), 5 CTAs running
GPGPU-Sim uArch: core:  7, cta: 4 initialized @(47882,0)
GPGPU-Sim PTX: 38300000 instructions simulated : ctaid=(5,5,0) tid=(13,11,0)
GPGPU-Sim uArch: cycles simulated: 48000  inst.: 32372324 (ipc=674.4) sim_rate=376422 (inst/sec) elapsed = 0:0:01:26 / Sun Mar  8 15:58:18 2015
GPGPU-Sim PTX: 38400000 instructions simulated : ctaid=(14,5,0) tid=(12,5,0)
GPGPU-Sim PTX: 38500000 instructions simulated : ctaid=(14,6,0) tid=(7,3,0)
GPGPU-Sim PTX: 38600000 instructions simulated : ctaid=(4,6,0) tid=(3,0,0)
GPGPU-Sim PTX: 38700000 instructions simulated : ctaid=(8,6,0) tid=(15,2,0)
GPGPU-Sim uArch: cycles simulated: 48500  inst.: 32700177 (ipc=674.2) sim_rate=375864 (inst/sec) elapsed = 0:0:01:27 / Sun Mar  8 15:58:19 2015
GPGPU-Sim PTX: 38800000 instructions simulated : ctaid=(11,5,0) tid=(1,9,0)
GPGPU-Sim PTX: 38900000 instructions simulated : ctaid=(8,6,0) tid=(10,7,0)
GPGPU-Sim PTX: 39000000 instructions simulated : ctaid=(11,5,0) tid=(2,12,0)
GPGPU-Sim PTX: 39100000 instructions simulated : ctaid=(6,6,0) tid=(5,2,0)
GPGPU-Sim uArch: cycles simulated: 49000  inst.: 33042809 (ipc=674.3) sim_rate=375486 (inst/sec) elapsed = 0:0:01:28 / Sun Mar  8 15:58:20 2015
GPGPU-Sim PTX: 39200000 instructions simulated : ctaid=(3,6,0) tid=(8,5,0)
GPGPU-Sim uArch: Shader 3 finished CTA #4 (49122,0), 5 CTAs running
GPGPU-Sim uArch: core:  3, cta: 4 initialized @(49123,0)
GPGPU-Sim PTX: 39300000 instructions simulated : ctaid=(7,6,0) tid=(1,3,0)
GPGPU-Sim PTX: 39400000 instructions simulated : ctaid=(13,6,0) tid=(14,3,0)
GPGPU-Sim PTX: 39500000 instructions simulated : ctaid=(12,5,0) tid=(4,14,0)
GPGPU-Sim uArch: cycles simulated: 49500  inst.: 33380571 (ipc=674.4) sim_rate=375062 (inst/sec) elapsed = 0:0:01:29 / Sun Mar  8 15:58:21 2015
GPGPU-Sim PTX: 39600000 instructions simulated : ctaid=(14,5,0) tid=(14,3,0)
GPGPU-Sim PTX: 39700000 instructions simulated : ctaid=(5,8,0) tid=(4,8,0)
[...]
gpgpu_stall_shd_mem[l_mem_ld][wb_rsrv_fail] = 0
gpu_reg_bank_conflict_stalls = 0
Warp Occupancy Distribution:
Stall:160204	W0_Idle:91999	W0_Scoreboard:265021	W1:103936	W2:0	W3:0	W4:0	W5:0	W6:0	W7:0	W8:0	W9:56	W10:56	W11:56	W12:56	W13:56	W14:56	W15:56	W16:10360	W17:0	W18:14112	W19:0	W20:14112	W21:0	W22:14112	W23:0	W24:14112	W25:0	W26:14112	W27:0	W28:14112	W29:0	W30:14112	W31:0	W32:3391008
traffic_breakdown_coretomem[CONST_ACC_R] = 120 {8:15,}
traffic_breakdown_coretomem[GLOBAL_ACC_R] = 762368 {8:95296,}
traffic_breakdown_coretomem[GLOBAL_ACC_W] = 294912 {72:4096,}
traffic_breakdown_coretomem[INST_ACC_R] = 960 {8:120,}
traffic_breakdown_memtocore[CONST_ACC_R] = 1080 {72:15,}
traffic_breakdown_memtocore[GLOBAL_ACC_R] = 12960256 {136:95296,}
traffic_breakdown_memtocore[GLOBAL_ACC_W] = 32768 {8:4096,}
traffic_breakdown_memtocore[INST_ACC_R] = 16320 {136:120,}
maxmrqlatency = 158 
maxdqlatency = 0 
maxmflatency = 555 
averagemflatency = 178 
max_icnt2mem_latency = 216 
max_icnt2sh_latency = 143042 
mrq_lat_table:2724 	116 	248 	817 	1286 	753 	261 	37 	0 	0 	0 	0 	0 	0 	0 	0 	0 	0 	0 	0 	0 	0 	0 	0 	0 	0 	0 	0 	0 	0 	0 	0 	
dq_lat_table:0 	0 	0 	0 	0 	0 	0 	0 	0 	0 	0 	0 	0 	0 	0 	0 	0 	0 	0 	0 	0 	0 	0 	0 	0 	0 	0 	0 	0 	0 	0 	0 	
mf_lat_table:0 	0 	0 	0 	0 	0 	0 	92099 	7288 	20 	0 	0 	0 	0 	0 	0 	0 	0 	0 	0 	0 	0 	0 	0 	0 	0 	0 	0 	0 	0 	0 	0 	
icnt2mem_lat_table:0 	0 	0 	92368 	4222 	2615 	262 	60 	0 	0 	0 	0 	0 	0 	0 	0 	0 	0 	0 	0 	0 	0 	0 	0 	
icnt2sh_lat_table:0 	0 	0 	21577 	48282 	24092 	1360 	0 	0 	0 	0 	0 	0 	0 	0 	1440 	2304 	352 	0 	0 	0 	0 	0 	0 	
mf_lat_pw_table:0 	0 	0 	0 	0 	0 	0 	268 	7 	0 	0 	0 	0 	0 	0 	0 	0 	0 	0 	0 	0 	0 	0 	0 	0 	0 	0 	0 	0 	0 	0 	0 	
maximum concurrent accesses to same row:
dram[0]:         1         0         0         0        10        10        32        32        32        32        32        32         0         0         0         0 
dram[1]:         2         0         0         0        10        10        32        32        32        32        32        32         0         0         0         0 
dram[2]:         2         0         0         0        10        12        32        32        32        32        32        32         0         0         0         0 
dram[3]:         2         0         0         0        10        12        32        32        32        32        32        32         0         0         0         0 
dram[4]:         0         0         0         0        10        12        32        32        32        32        32        32         0         0         0         0 
dram[5]:         0         0         0         0        10        12        32        32        32        32        32        32         0         0         0         0 
maximum service time to same row:
dram[0]:       695     41365     42871     39997     66976     69757     81229     79141    106756    110340     82186     84795     61157     71588     90947     96535 
dram[1]:     38662     42128     39566     40025     64762     71782     81149     82644    107296    109901     86225     87475     63263     74428     90419     92871 
dram[2]:     37291     38419     40002     44475     69769     67370     79144     85895    110372    113781     84798     87387     71572     61197     96538     91000 
dram[3]:     37110     39488     40013     39557     71791     64742     82634     81153    109901    107269     87475     86224     74429     63265     92872     90444 
dram[4]:     38425     41357     44468     40006     67383     69774     85915     79128    113858    110323     87388     84797     61156     71610     90946     96635 
dram[5]:     39460     42124     39562     40018     64743     71781     81148     82614    107321    109639     86206     87461     63294     74476     90416     92950 
average row accesses per activate:
dram[0]: 16.250000 64.000000 66.000000 64.000000 37.000000 37.000000 48.000000 48.000000 50.500000 50.500000 28.000000 26.000000 32.000000 32.000000 32.000000 32.000000 
dram[1]: 36.500000 64.000000 64.000000 65.000000 37.500000 37.000000 48.000000 48.000000 48.000000 48.000000 28.000000 28.000000 32.000000 32.000000 32.000000 32.000000 
dram[2]: 33.000000 64.000000 64.000000 68.000000 37.000000 38.000000 48.000000 48.000000 50.500000 50.500000 28.000000 26.000000 32.000000 32.000000 32.000000 32.000000 
dram[3]: 33.000000 73.000000 65.000000 64.000000 37.000000 38.500000 48.000000 48.000000 48.000000 48.000000 30.500000 26.000000 32.000000 32.000000 32.000000 32.000000 
dram[4]: 64.000000 64.000000 69.000000 64.000000 37.000000 38.000000 48.000000 48.000000 51.000000 51.000000 28.000000 26.000000 32.000000 32.000000 32.000000 32.000000 
dram[5]: 73.000000 64.000000 64.000000 65.000000 37.500000 38.000000 48.000000 48.000000 48.000000 48.000000 26.000000 28.000000 32.000000 32.000000 32.000000 32.000000 
average row locality = 6242/150 = 41.613333
number of total memory accesses made:
dram[0]:         0         0         0         0         0         0         0         0         0         0         0         0         0         0         0         0 
dram[1]:         0         0         0         0         0         0         0         0         0         0         0         0         0         0         0         0 
dram[2]:         0         0         0         0         0         0         0         0         0         0         0         0         0         0         0         0 
dram[3]:         0         0         0         0         0         0         0         0         0         0         0         0         0         0         0         0 
dram[4]:         0         0         0         0         0         0         0         0         0         0         0         0         0         0         0         0 
dram[5]:         0         0         0         0         0         0         0         0         0         0         0         0         0         0         0         0 
total accesses: 0
min_bank_accesses = 0!
min_chip_accesses = 0!
number of total read accesses:
dram[0]:        35        32        32        32        42        42        64        64        64        64        44        42        32        32        32        32 
dram[1]:        34        32        32        32        42        42        64        64        64        64        44        42        32        32        32        32 
dram[2]:        34        32        32        32        42        44        64        64        64        64        44        42        32        32        32        32 
dram[3]:        34        32        32        32        42        44        64        64        64        64        44        42        32        32        32        32 
dram[4]:        32        32        32        32        42        44        64        64        64        64        44        42        32        32        32        32 
dram[5]:        32        32        32        32        42        44        64        64        64        64        42        42        32        32        32        32 
total reads: 4107
bank skew: 64/32 = 2.00
chip skew: 686/682 = 1.01
number of total write accesses:
dram[0]:        30        32        34        32        32        32        32        32        37        37        12        10         0         0         0         0 
dram[1]:        39        32        32        33        33        32        32        32        32        32        12        14         0         0         0         0 
dram[2]:        32        32        32        36        32        32        32        32        37        37        12        10         0         0         0         0 
dram[3]:        32        41        33        32        32        33        32        32        32        32        17        10         0         0         0         0 
dram[4]:        32        32        37        32        32        32        32        32        38        38        12        10         0         0         0         0 
dram[5]:        41        32        32        33        33        32        32        32        32        32        10        14         0         0         0         0 
total reads: 2135
min_bank_accesses = 0!
chip skew: 359/352 = 1.02
average mf latency per bank:
dram[0]:       2071       261       237       241      2012      2252      1580      1924      4519      5131      4543      5813      8134      8819      7700      4647
dram[1]:        246       254       236       229      2112      1277      3654      3217      2572      1955      4779      5403      7334      7036      7143      2492
dram[2]:        247       251       238       236      2166      2218      1722      1442      4905      4117      4850      4684      8253      7821      4406      7282
dram[3]:        244       270       226       238      1367      2445      3296      3688      1900      2979      5149      4887      6848      7784      2327      7080
dram[4]:        239       256       230       246      1870      2495      1357      1790      4144      5322      4411      6228      7454      8363      7524      4419
dram[5]:        249       249       231       238      1932      1494      3182      3369      2817      1897      4546      5398      7112      7386      6937      2347
maximum mf latency per bank:
dram[0]:        405       516       420       394       489       410       533       507       486       457       447       404       449       510       318       365
dram[1]:        420       465       392       362       411       451       489       508       475       331       363       355       327       332       354       313
dram[2]:        494       371       381       398       473       437       476       555       416       493       416       349       413       334       339       295
dram[3]:        466       442       324       384       418       445       493       506       350       446       371       344       313       324       316       382
dram[4]:        340       511       382       405       403       394       524       514       445       478       344       513       330       343       300       333
dram[5]:        456       432       371       380       372       432       480       536       429       336       346       342       317       307       325       390

Number of Memory Banks Accessed per Memory Operation per Warp (from 0):
0	0	0	0	0	0	0	0	0	0	0	0	0	0	0	0	0	0	0	0	0	0	0	0	0	0	0	0	0	0	0	0	0	0	0	0	0	0	0	0	0	0	0	0	0	0	0	0	0	0	0	0	0	0	0	0	0	0	0	0	0	0	0	0	0	0	0	0	0	0	0	0	0	0	0	0	0	0	0	0	0	0	0	0	0	0	0	0	0	0	0	0	0	0	0	0	
Average # of Memory Banks Accessed per Memory Operation per Warp=-nan

position of mrq chosen
0	0	0	0	0	0	0	0	0	0	0	0	0	0	0	0	

average position of mrq chosen = -nan
Memory Partition 0: 
Cache L2_bank_000:
MSHR contents

Cache L2_bank_001:
MSHR contents

In Dram Latency Queue (total = 0): 
DRAM[0]: 16 bks, busW=4 BL=8 CL=12, tRRD=2 tCCD=6, tRCD=12 tRAS=28 tRP=12 tRC=40
n_cmd=188816 n_nop=187056 n_act=27 n_pre=11 n_req=1037 n_rd=1370 n_write=352 bw_util=0.01824
n_activity=13149 dram_eff=0.2619
bk0: 70a 187949i bk1: 64a 187994i bk2: 64a 188035i bk3: 64a 188053i bk4: 84a 187955i bk5: 84a 187966i bk6: 128a 187702i bk7: 128a 187690i bk8: 128a 187820i bk9: 128a 187864i bk10: 88a 188366i bk11: 84a 188413i bk12: 64a 188667i bk13: 64a 188668i bk14: 64a 188672i bk15: 64a 188672i 
dram_util_bins: 0 0 0 0 0 0 0 0 0 0
dram_eff_bins: 0 0 0 0 0 0 0 0 0 0
mrqq: max=16 avg=0.0994089
Memory Partition 1: 
Cache L2_bank_002:
MSHR contents

Cache L2_bank_003:
MSHR contents

In Dram Latency Queue (total = 0): 
DRAM[1]: 16 bks, busW=4 BL=8 CL=12, tRRD=2 tCCD=6, tRCD=12 tRAS=28 tRP=12 tRC=40
n_cmd=188816 n_nop=187059 n_act=25 n_pre=9 n_req=1039 n_rd=1368 n_write=355 bw_util=0.01825
n_activity=13126 dram_eff=0.2625
bk0: 68a 187844i bk1: 64a 187837i bk2: 64a 188033i bk3: 64a 188052i bk4: 84a 187994i bk5: 84a 187949i bk6: 128a 187735i bk7: 128a 187643i bk8: 128a 187884i bk9: 128a 187916i bk10: 88a 188329i bk11: 84a 188361i bk12: 64a 188676i bk13: 64a 188669i bk14: 64a 188671i bk15: 64a 188667i 
dram_util_bins: 0 0 0 0 0 0 0 0 0 0
dram_eff_bins: 0 0 0 0 0 0 0 0 0 0
mrqq: max=16 avg=0.121806
Memory Partition 2: 
Cache L2_bank_004:
MSHR contents

Cache L2_bank_005:
MSHR contents

In Dram Latency Queue (total = 0): 
DRAM[2]: 16 bks, busW=4 BL=8 CL=12, tRRD=2 tCCD=6, tRCD=12 tRAS=28 tRP=12 tRC=40
n_cmd=188816 n_nop=187054 n_act=25 n_pre=9 n_req=1042 n_rd=1372 n_write=356 bw_util=0.0183
n_activity=13333 dram_eff=0.2592
bk0: 68a 187959i bk1: 64a 188045i bk2: 64a 188033i bk3: 64a 187989i bk4: 84a 187979i bk5: 88a 187872i bk6: 128a 187822i bk7: 128a 187629i bk8: 128a 187850i bk9: 128a 187845i bk10: 88a 188359i bk11: 84a 188417i bk12: 64a 188659i bk13: 64a 188664i bk14: 64a 188652i bk15: 64a 188675i 
dram_util_bins: 0 0 0 0 0 0 0 0 0 0
dram_eff_bins: 0 0 0 0 0 0 0 0 0 0
mrqq: max=16 avg=0.107226
Memory Partition 3: 
Cache L2_bank_006:
MSHR contents

Cache L2_bank_007:
MSHR contents

In Dram Latency Queue (total = 0): 
DRAM[3]: 16 bks, busW=4 BL=8 CL=12, tRRD=2 tCCD=6, tRCD=12 tRAS=28 tRP=12 tRC=40
n_cmd=188816 n_nop=187052 n_act=25 n_pre=9 n_req=1044 n_rd=1372 n_write=358 bw_util=0.01832
n_activity=13253 dram_eff=0.2611
bk0: 68a 187818i bk1: 64a 187853i bk2: 64a 188068i bk3: 64a 188018i bk4: 84a 187964i bk5: 88a 187862i bk6: 128a 187795i bk7: 128a 187653i bk8: 128a 187905i bk9: 128a 187886i bk10: 88a 188307i bk11: 84a 188389i bk12: 64a 188674i bk13: 64a 188668i bk14: 64a 188674i bk15: 64a 188675i 
dram_util_bins: 0 0 0 0 0 0 0 0 0 0
dram_eff_bins: 0 0 0 0 0 0 0 0 0 0
mrqq: max=16 avg=0.12402
Memory Partition 4: 
Cache L2_bank_008:
MSHR contents

Cache L2_bank_009:
MSHR contents

In Dram Latency Queue (total = 0): 
DRAM[4]: 16 bks, busW=4 BL=8 CL=12, tRRD=2 tCCD=6, tRCD=12 tRAS=28 tRP=12 tRC=40
n_cmd=188816 n_nop=187057 n_act=24 n_pre=8 n_req=1043 n_rd=1368 n_write=359 bw_util=0.01829
n_activity=13218 dram_eff=0.2613
bk0: 64a 188051i bk1: 64a 188024i bk2: 64a 188019i bk3: 64a 188013i bk4: 84a 187940i bk5: 88a 187962i bk6: 128a 187725i bk7: 128a 187731i bk8: 128a 187855i bk9: 128a 187801i bk10: 88a 188361i bk11: 84a 188404i bk12: 64a 188655i bk13: 64a 188655i bk14: 64a 188671i bk15: 64a 188663i 
dram_util_bins: 0 0 0 0 0 0 0 0 0 0
dram_eff_bins: 0 0 0 0 0 0 0 0 0 0
mrqq: max=16 avg=0.113454
Memory Partition 5: 
Cache L2_bank_010:
MSHR contents

Cache L2_bank_011:
MSHR contents

In Dram Latency Queue (total = 0): 
DRAM[5]: 16 bks, busW=4 BL=8 CL=12, tRRD=2 tCCD=6, tRCD=12 tRAS=28 tRP=12 tRC=40
n_cmd=188816 n_nop=187065 n_act=24 n_pre=8 n_req=1037 n_rd=1364 n_write=355 bw_util=0.01821
n_activity=13124 dram_eff=0.262
bk0: 64a 187851i bk1: 64a 187876i bk2: 64a 188054i bk3: 64a 188033i bk4: 84a 187988i bk5: 88a 187900i bk6: 128a 187722i bk7: 128a 187695i bk8: 128a 187927i bk9: 128a 187904i bk10: 84a 188365i bk11: 84a 188364i bk12: 64a 188663i bk13: 64a 188660i bk14: 64a 188672i bk15: 64a 188670i 
dram_util_bins: 0 0 0 0 0 0 0 0 0 0
dram_eff_bins: 0 0 0 0 0 0 0 0 0 0
mrqq: max=16 avg=0.119884

========= L2 cache stats =========
L2_cache_bank[0]: Access = 9215, Miss = 345, Miss_rate = 0.037, Pending_hits = 55, Reservation_fails = 528
L2_cache_bank[1]: Access = 8824, Miss = 340, Miss_rate = 0.039, Pending_hits = 54, Reservation_fails = 0
L2_cache_bank[2]: Access = 8606, Miss = 344, Miss_rate = 0.040, Pending_hits = 65, Reservation_fails = 193
L2_cache_bank[3]: Access = 7122, Miss = 340, Miss_rate = 0.048, Pending_hits = 43, Reservation_fails = 0
L2_cache_bank[4]: Access = 8499, Miss = 344, Miss_rate = 0.040, Pending_hits = 65, Reservation_fails = 188
L2_cache_bank[5]: Access = 8456, Miss = 342, Miss_rate = 0.040, Pending_hits = 43, Reservation_fails = 0
L2_cache_bank[6]: Access = 7200, Miss = 344, Miss_rate = 0.048, Pending_hits = 45, Reservation_fails = 95
L2_cache_bank[7]: Access = 8849, Miss = 342, Miss_rate = 0.039, Pending_hits = 64, Reservation_fails = 0
L2_cache_bank[8]: Access = 8320, Miss = 342, Miss_rate = 0.041, Pending_hits = 49, Reservation_fails = 0
L2_cache_bank[9]: Access = 8802, Miss = 342, Miss_rate = 0.039, Pending_hits = 53, Reservation_fails = 0
L2_cache_bank[10]: Access = 8351, Miss = 340, Miss_rate = 0.041, Pending_hits = 63, Reservation_fails = 0
L2_cache_bank[11]: Access = 7283, Miss = 342, Miss_rate = 0.047, Pending_hits = 40, Reservation_fails = 0
L2_total_cache_accesses = 99527
L2_total_cache_misses = 4107
L2_total_cache_miss_rate = 0.0413
L2_total_cache_pending_hits = 639
L2_total_cache_reservation_fails = 1004
L2_total_cache_breakdown:
	L2_cache_stats_breakdown[GLOBAL_ACC_R][HIT] = 92718
	L2_cache_stats_breakdown[GLOBAL_ACC_R][HIT_RESERVED] = 528
	L2_cache_stats_breakdown[GLOBAL_ACC_R][MISS] = 2050
	L2_cache_stats_breakdown[GLOBAL_ACC_R][RESERVATION_FAIL] = 197
	L2_cache_stats_breakdown[CONST_ACC_R][HIT] = 11
	L2_cache_stats_breakdown[CONST_ACC_R][HIT_RESERVED] = 3
	L2_cache_stats_breakdown[CONST_ACC_R][MISS] = 1
	L2_cache_stats_breakdown[CONST_ACC_R][RESERVATION_FAIL] = 109
	L2_cache_stats_breakdown[GLOBAL_ACC_W][HIT] = 1961
	L2_cache_stats_breakdown[GLOBAL_ACC_W][HIT_RESERVED] = 87
	L2_cache_stats_breakdown[GLOBAL_ACC_W][MISS] = 2048
	L2_cache_stats_breakdown[INST_ACC_R][HIT] = 91
	L2_cache_stats_breakdown[INST_ACC_R][HIT_RESERVED] = 21
	L2_cache_stats_breakdown[INST_ACC_R][MISS] = 8
	L2_cache_stats_breakdown[INST_ACC_R][RESERVATION_FAIL] = 698
L2_cache_data_port_util = 0.219
L2_cache_fill_port_util = 0.010

icnt_total_pkts_mem_to_simt=481221
icnt_total_pkts_simt_to_mem=107719
LD_mem_lat_dist  0 0 0 0 0 0 0 0 0 0 0 0 0 0 0 0 0 0 0 0 0 0 0 0 0 0 0
ST_mem_lat_dist  0 0 0 0 0 0 0 0 0 0 0 0 0 0 0 0 0 0 0 0 0 0 0 0 0 0 0
----------------------------Interconnect-DETAILS--------------------------------
Class 0:
Packet latency average = 15.7125
	minimum = 6
	maximum = 116
Network latency average = 13.38
	minimum = 6
	maximum = 108
Slowest packet = 83912
Flit latency average = 13.0442
	minimum = 6
	maximum = 104
Slowest flit = 248798
Fragmentation average = 0
	minimum = 0
	maximum = 0
Injected packet rate average = 0.0515395
	minimum = 0.0289074 (at node 4)
	maximum = 0.0644212 (at node 15)
Accepted packet rate average = 0.0515395
	minimum = 0.0289074 (at node 4)
	maximum = 0.0644212 (at node 15)
Injected flit rate average = 0.15249
	minimum = 0.0327104 (at node 4)
	maximum = 0.312389 (at node 15)
Accepted flit rate average= 0.15249
	minimum = 0.054543 (at node 18)
	maximum = 0.28093 (at node 8)
Injected packet length average = 2.95869
Accepted packet length average = 2.95869
Total in-flight flits = 0 (0 measured)
====== Overall Traffic Statistics ======
====== Traffic class 0 ======
Packet latency average = 15.7125 (1 samples)
	minimum = 6 (1 samples)
	maximum = 116 (1 samples)
Network latency average = 13.38 (1 samples)
	minimum = 6 (1 samples)
	maximum = 108 (1 samples)
Flit latency average = 13.0442 (1 samples)
	minimum = 6 (1 samples)
	maximum = 104 (1 samples)
Fragmentation average = 0 (1 samples)
	minimum = 0 (1 samples)
	maximum = 0 (1 samples)
Injected packet rate average = 0.0515395 (1 samples)
	minimum = 0.0289074 (1 samples)
	maximum = 0.0644212 (1 samples)
Accepted packet rate average = 0.0515395 (1 samples)
	minimum = 0.0289074 (1 samples)
	maximum = 0.0644212 (1 samples)
Injected flit rate average = 0.15249 (1 samples)
	minimum = 0.0327104 (1 samples)
	maximum = 0.312389 (1 samples)
Accepted flit rate average = 0.15249 (1 samples)
	minimum = 0.054543 (1 samples)
	maximum = 0.28093 (1 samples)
Injected packet size average = 2.95869 (1 samples)
Accepted packet size average = 2.95869 (1 samples)
Hops average = 1 (1 samples)
----------------------------END-of-Interconnect-DETAILS-------------------------


gpgpu_simulation_time = 0 days, 0 hrs, 3 min, 58 sec (238 sec)
gpgpu_simulation_rate = 393035 (inst/sec)
gpgpu_simulation_rate = 601 (cycle/sec)
Processing time: 238518.140625 (ms) -- do done kernel  
matrixC
hello
reference
Test PASSED

Press ENTER to exit...
