

        *** GPGPU-Sim Simulator Version 3.2.2  [build 0] ***


GPGPU-Sim PTX: simulation mode 0 (can change with PTX_SIM_MODE_FUNC environment variable:
               1=functional simulation only, 0=detailed performance simulator)
GPGPU-Sim: Configuration options:

-network_mode                           1 # Interconnection network mode
-inter_config_file   config_fermi_islip.icnt # Interconnection network config file
-gpgpu_ptx_use_cuobjdump                    1 # Use cuobjdump to extract ptx and sass from binaries
-gpgpu_experimental_lib_support                    0 # Try to extract code from cuda libraries [Broken because of unknown cudaGetExportTable]
-gpgpu_ptx_convert_to_ptxplus                    0 # Convert SASS (native ISA) to ptxplus and run ptxplus
-gpgpu_ptx_force_max_capability                   20 # Force maximum compute capability
-gpgpu_ptx_inst_debug_to_file                    0 # Dump executed instructions' debug information to file
-gpgpu_ptx_inst_debug_file       inst_debug.txt # Executed instructions' debug output file
-gpgpu_ptx_inst_debug_thread_uid                    1 # Thread UID for executed instructions' debug output
-gpgpu_simd_model                       1 # 1 = post-dominator
-gpgpu_shader_core_pipeline              1536:32 # shader core pipeline config, i.e., {<nthread>:<warpsize>}
-gpgpu_tex_cache:l1  4:128:24,L:R:m:N:L,F:128:4,128:2 # per-shader L1 texture cache  (READ-ONLY) config  {<nsets>:<bsize>:<assoc>,<rep>:<wr>:<alloc>:<wr_alloc>,<mshr>:<N>:<merge>,<mq>:<rf>}
-gpgpu_const_cache:l1 64:64:2,L:R:f:N:L,A:2:32,4 # per-shader L1 constant memory cache  (READ-ONLY) config  {<nsets>:<bsize>:<assoc>,<rep>:<wr>:<alloc>:<wr_alloc>,<mshr>:<N>:<merge>,<mq>} 
-gpgpu_cache:il1     4:128:4,L:R:f:N:L,A:2:32,4 # shader L1 instruction cache config  {<nsets>:<bsize>:<assoc>,<rep>:<wr>:<alloc>:<wr_alloc>,<mshr>:<N>:<merge>,<mq>} 
-gpgpu_cache:dl1     32:128:4,L:L:m:N:H,A:32:8,8 # per-shader L1 data cache config  {<nsets>:<bsize>:<assoc>,<rep>:<wr>:<alloc>:<wr_alloc>,<mshr>:<N>:<merge>,<mq> | none}
-gpgpu_cache:dl1PrefL1                 none # per-shader L1 data cache config  {<nsets>:<bsize>:<assoc>,<rep>:<wr>:<alloc>:<wr_alloc>,<mshr>:<N>:<merge>,<mq> | none}
-gpgpu_cache:dl1PreShared                 none # per-shader L1 data cache config  {<nsets>:<bsize>:<assoc>,<rep>:<wr>:<alloc>:<wr_alloc>,<mshr>:<N>:<merge>,<mq> | none}
-gmem_skip_L1D                          0 # global memory access skip L1D cache (implements -Xptxas -dlcm=cg, default=no skip)
-gpgpu_perfect_mem                      0 # enable perfect memory mode (no cache miss)
-n_regfile_gating_group                    4 # group of lanes that should be read/written together)
-gpgpu_clock_gated_reg_file                    0 # enable clock gated reg file for power calculations
-gpgpu_clock_gated_lanes                    0 # enable clock gated lanes for power calculations
-gpgpu_shader_registers                32768 # Number of registers per shader core. Limits number of concurrent CTAs. (default 8192)
-gpgpu_shader_cta                       8 # Maximum number of concurrent CTAs in shader (default 8)
-gpgpu_num_cta_barriers                   16 # Maximum number of named barriers per CTA (default 16)
-gpgpu_n_clusters                      15 # number of processing clusters
-gpgpu_n_cores_per_cluster                    1 # number of simd cores per cluster
-gpgpu_n_cluster_ejection_buffer_size                    8 # number of packets in ejection buffer
-gpgpu_n_ldst_response_buffer_size                    2 # number of response packets in ld/st unit ejection buffer
-gpgpu_shmem_size                   16384 # Size of shared memory per shader core (default 16kB)
-gpgpu_shmem_size                   49152 # Size of shared memory per shader core (default 16kB)
-gpgpu_shmem_size_PrefL1                16384 # Size of shared memory per shader core (default 16kB)
-gpgpu_shmem_size_PrefShared                16384 # Size of shared memory per shader core (default 16kB)
-gpgpu_shmem_num_banks                   32 # Number of banks in the shared memory in each shader core (default 16)
-gpgpu_shmem_limited_broadcast                    0 # Limit shared memory to do one broadcast per cycle (default on)
-gpgpu_shmem_warp_parts                    1 # Number of portions a warp is divided into for shared memory bank conflict check 
-gpgpu_warpdistro_shader                   -1 # Specify which shader core to collect the warp size distribution from
-gpgpu_warp_issue_shader                    0 # Specify which shader core to collect the warp issue distribution from
-gpgpu_local_mem_map                    1 # Mapping from local memory space address to simulated GPU physical address space (default = enabled)
-gpgpu_num_reg_banks                   16 # Number of register banks (default = 8)
-gpgpu_reg_bank_use_warp_id                    0 # Use warp ID in mapping registers to banks (default = off)
-gpgpu_operand_collector_num_units_sp                    6 # number of collector units (default = 4)
-gpgpu_operand_collector_num_units_sfu                    8 # number of collector units (default = 4)
-gpgpu_operand_collector_num_units_mem                    2 # number of collector units (default = 2)
-gpgpu_operand_collector_num_units_gen                    0 # number of collector units (default = 0)
-gpgpu_operand_collector_num_in_ports_sp                    2 # number of collector unit in ports (default = 1)
-gpgpu_operand_collector_num_in_ports_sfu                    1 # number of collector unit in ports (default = 1)
-gpgpu_operand_collector_num_in_ports_mem                    1 # number of collector unit in ports (default = 1)
-gpgpu_operand_collector_num_in_ports_gen                    0 # number of collector unit in ports (default = 0)
-gpgpu_operand_collector_num_out_ports_sp                    2 # number of collector unit in ports (default = 1)
-gpgpu_operand_collector_num_out_ports_sfu                    1 # number of collector unit in ports (default = 1)
-gpgpu_operand_collector_num_out_ports_mem                    1 # number of collector unit in ports (default = 1)
-gpgpu_operand_collector_num_out_ports_gen                    0 # number of collector unit in ports (default = 0)
-gpgpu_coalesce_arch                   13 # Coalescing arch (default = 13, anything else is off for now)
-gpgpu_num_sched_per_core                    2 # Number of warp schedulers per core
-gpgpu_max_insn_issue_per_warp                    1 # Max number of instructions that can be issued per warp in one cycle by scheduler
-gpgpu_simt_core_sim_order                    1 # Select the simulation order of cores in a cluster (0=Fix, 1=Round-Robin)
-gpgpu_pipeline_widths        2,1,1,2,1,1,2 # Pipeline widths ID_OC_SP,ID_OC_SFU,ID_OC_MEM,OC_EX_SP,OC_EX_SFU,OC_EX_MEM,EX_WB
-gpgpu_num_sp_units                     2 # Number of SP units (default=1)
-gpgpu_num_sfu_units                    1 # Number of SF units (default=1)
-gpgpu_num_mem_units                    1 # Number if ldst units (default=1) WARNING: not hooked up to anything
-gpgpu_scheduler                      gto # Scheduler configuration: < lrr | gto | two_level_active > If two_level_active:<num_active_warps>:<inner_prioritization>:<outer_prioritization>For complete list of prioritization values see shader.h enum scheduler_prioritization_typeDefault: gto
-gpgpu_dram_scheduler                    1 # 0 = fifo, 1 = FR-FCFS (defaul)
-gpgpu_dram_partition_queues              8:8:8:8 # i2$:$2d:d2$:$2i
-l2_ideal                               0 # Use a ideal L2 cache that always hit
-gpgpu_cache:dl2     64:128:8,L:B:m:W:L,A:32:4,4:0,32 # unified banked L2 data cache config  {<nsets>:<bsize>:<assoc>,<rep>:<wr>:<alloc>:<wr_alloc>,<mshr>:<N>:<merge>,<mq>}
-gpgpu_cache:dl2_texture_only                    0 # L2 cache used for texture only
-gpgpu_n_mem                            6 # number of memory modules (e.g. memory controllers) in gpu
-gpgpu_n_sub_partition_per_mchannel                    2 # number of memory subpartition in each memory module
-gpgpu_n_mem_per_ctrlr                    2 # number of memory chips per memory controller
-gpgpu_memlatency_stat                   14 # track and display latency statistics 0x2 enables MC, 0x4 enables queue logs
-gpgpu_frfcfs_dram_sched_queue_size                   16 # 0 = unlimited (default); # entries per chip
-gpgpu_dram_return_queue_size                  116 # 0 = unlimited (default); # entries per chip
-gpgpu_dram_buswidth                    4 # default = 4 bytes (8 bytes per cycle at DDR)
-gpgpu_dram_burst_length                    8 # Burst length of each DRAM request (default = 4 data bus cycle)
-dram_data_command_freq_ratio                    4 # Frequency ratio between DRAM data bus and command bus (default = 2 times, i.e. DDR)
-gpgpu_dram_timing_opt nbk=16:CCD=2:RRD=6:RCD=12:RAS=28:RP=12:RC=40: CL=12:WL=4:CDLR=5:WR=12:nbkgrp=4:CCDL=3:RTPL=2 # DRAM timing parameters = {nbk:tCCD:tRRD:tRCD:tRAS:tRP:tRC:CL:WL:tCDLR:tWR:nbkgrp:tCCDL:tRTPL}
-rop_latency                          120 # ROP queue latency (default 85)
-dram_latency                         100 # DRAM latency (default 30)
-gpgpu_mem_addr_mapping dramid@8;00000000.00000000.00000000.00000000.0000RRRR.RRRRRRRR.BBBCCCCB.CCSSSSSS # mapping memory address to dram model {dramid@<start bit>;<memory address map>}
-gpgpu_mem_addr_test                    0 # run sweep test to check address mapping for aliased address
-gpgpu_mem_address_mask                    1 # 0 = old addressing mask, 1 = new addressing mask, 2 = new add. mask + flipped bank sel and chip sel bits
-gpuwattch_xml_file  gpuwattch_gtx480.xml # GPUWattch XML file
-power_simulation_enabled                    1 # Turn on power simulator (1=On, 0=Off)
-power_per_cycle_dump                    0 # Dump detailed power output each cycle
-power_trace_enabled                    0 # produce a file for the power trace (1=On, 0=Off)
-power_trace_zlevel                     6 # Compression level of the power trace output log (0=no comp, 9=highest)
-steady_power_levels_enabled                    0 # produce a file for the steady power levels (1=On, 0=Off)
-steady_state_definition                  8:4 # allowed deviation:number of samples
-gpgpu_max_cycle                        0 # terminates gpu simulation early (0 = no limit)
-gpgpu_max_insn                         0 # terminates gpu simulation early (0 = no limit)
-gpgpu_max_cta                          0 # terminates gpu simulation early (0 = no limit)
-gpgpu_runtime_stat                   500 # display runtime statistics such as dram utilization {<freq>:<flag>}
-liveness_message_freq                    1 # Minimum number of seconds between simulation liveness messages (0 = always print)
-gpgpu_flush_l1_cache                    0 # Flush L1 cache at the end of each kernel call
-gpgpu_flush_l2_cache                    0 # Flush L2 cache at the end of each kernel call
-gpgpu_deadlock_detect                    1 # Stop the simulation at deadlock (1=on (default), 0=off)
-gpgpu_ptx_instruction_classification                    0 # if enabled will classify ptx instruction types per kernel (Max 255 kernels now)
-gpgpu_ptx_sim_mode                     0 # Select between Performance (default) or Functional simulation (1)
-gpgpu_clock_domains 700.0:700.0:700.0:924.0 # Clock Domain Frequencies in MhZ {<Core Clock>:<ICNT Clock>:<L2 Clock>:<DRAM Clock>}
-gpgpu_max_concurrent_kernel                    8 # maximum kernels that can run concurrently on GPU
-gpgpu_cflog_interval                    0 # Interval between each snapshot in control flow logger
-visualizer_enabled                     0 # Turn on visualizer output (1=On, 0=Off)
-visualizer_outputfile                 NULL # Specifies the output log file for visualizer
-visualizer_zlevel                      6 # Compression level of the visualizer output log (0=no comp, 9=highest)
-trace_enabled                          0 # Turn on traces
-trace_components                    none # comma seperated list of traces to enable. Complete list found in trace_streams.tup. Default none
-trace_sampling_core                    0 # The core which is printed using CORE_DPRINTF. Default 0
-trace_sampling_memory_partition                   -1 # The memory partition which is printed using MEMPART_DPRINTF. Default -1 (i.e. all)
-enable_ptx_file_line_stats                    1 # Turn on PTX source line statistic profiling. (1 = On)
-ptx_line_stats_filename gpgpu_inst_stats.txt # Output file for PTX source line statistics.
-save_embedded_ptx                      0 # saves ptx files embedded in binary as <n>.ptx
-keep                                   0 # keep intermediate files created by GPGPU-Sim when interfacing with external programs
-gpgpu_ptx_save_converted_ptxplus                    0 # Saved converted ptxplus to a file
-ptx_opcode_latency_int         4,13,4,5,145 # Opcode latencies for integers <ADD,MAX,MUL,MAD,DIV>Default 1,1,19,25,145
-ptx_opcode_latency_fp          4,13,4,5,39 # Opcode latencies for single precision floating points <ADD,MAX,MUL,MAD,DIV>Default 1,1,1,1,30
-ptx_opcode_latency_dp         8,19,8,8,330 # Opcode latencies for double precision floating points <ADD,MAX,MUL,MAD,DIV>Default 8,8,8,8,335
-ptx_opcode_initiation_int            1,2,2,1,8 # Opcode initiation intervals for integers <ADD,MAX,MUL,MAD,DIV>Default 1,1,4,4,32
-ptx_opcode_initiation_fp            1,2,1,1,4 # Opcode initiation intervals for single precision floating points <ADD,MAX,MUL,MAD,DIV>Default 1,1,1,1,5
-ptx_opcode_initiation_dp         8,16,8,8,130 # Opcode initiation intervals for double precision floating points <ADD,MAX,MUL,MAD,DIV>Default 8,8,8,8,130
DRAM Timing Options:
nbk                                    16 # number of banks
CCD                                     2 # column to column delay
RRD                                     6 # minimal delay between activation of rows in different banks
RCD                                    12 # row to column delay
RAS                                    28 # time needed to activate row
RP                                     12 # time needed to precharge (deactivate) row
RC                                     40 # row cycle time
CDLR                                    5 # switching from write to read (changes tWTR)
WR                                     12 # last data-in to row precharge
CL                                     12 # CAS latency
WL                                      4 # Write latency
nbkgrp                                  4 # number of bank groups
CCDL                                    3 # column to column delay between accesses to different bank groups
RTPL                                    2 # read to precharge delay between accesses to different bank groups
Total number of memory sub partition = 12
addr_dec_mask[CHIP]  = 0000000000000000 	high:64 low:0
addr_dec_mask[BK]    = 000000000000e100 	high:16 low:8
addr_dec_mask[ROW]   = 000000000fff0000 	high:28 low:16
addr_dec_mask[COL]   = 0000000000001eff 	high:13 low:0
addr_dec_mask[BURST] = 000000000000003f 	high:6 low:0
sub_partition_id_mask = 0000000000000100
GPGPU-Sim uArch: clock freqs: 700000000.000000:700000000.000000:700000000.000000:924000000.000000
GPGPU-Sim uArch: clock periods: 0.00000000142857142857:0.00000000142857142857:0.00000000142857142857:0.00000000108225108225
*** Initializing Memory Statistics ***
GPGPU-Sim uArch: interconnect node map (shaderID+MemID to icntID)
GPGPU-Sim uArch: Memory nodes ID start from index: 15
GPGPU-Sim uArch:    0   1   2   3   4
GPGPU-Sim uArch:    5   6   7   8   9
GPGPU-Sim uArch:   10  11  12  13  14
GPGPU-Sim uArch:   15  16  17  18  19
GPGPU-Sim uArch:   20  21  22  23  24
GPGPU-Sim uArch:   25  26
GPGPU-Sim uArch: interconnect node reverse map (icntID to shaderID+MemID)
GPGPU-Sim uArch: Memory nodes start from ID: 15
GPGPU-Sim uArch:    0   1   2   3   4
GPGPU-Sim uArch:    5   6   7   8   9
GPGPU-Sim uArch:   10  11  12  13  14
GPGPU-Sim uArch:   15  16  17  18  19
GPGPU-Sim uArch:   20  21  22  23  24
GPGPU-Sim uArch:   25  26
ea0cc86d41748bab31304c53244ec3f1  /home/ece786/NVIDIA_GPU_Computing_SDK/C/bin/linux/release/matrix
GPGPU-Sim uArch: performance model initialization complete.
GPGPU-Sim PTX: FatBin file name extraction has not been tested on 32-bit system.
GPGPU-Sim PTX: __cudaRegisterFatBinary, fat_cubin_handle = 1, filename=matrix.cu
self exe links to: /home/ece786/NVIDIA_GPU_Computing_SDK/C/bin/linux/release/matrix
Running md5sum using "md5sum /home/ece786/NVIDIA_GPU_Computing_SDK/C/bin/linux/release/matrix "
Running cuobjdump using "$CUDA_INSTALL_PATH/bin/cuobjdump -ptx -elf -sass /home/ece786/NVIDIA_GPU_Computing_SDK/C/bin/linux/release/matrix > _cuobjdump_complete_output_uOM1cs"
Parsing file _cuobjdump_complete_output_uOM1cs
######### cuobjdump parser ########
## Adding new section PTX
Adding ptx filename: _cuobjdump_1.ptx
Adding arch: sm_10
Adding identifier: matrix.cu
## Adding new section ELF
Adding arch: sm_10
Adding identifier: matrix.cu
## Adding new section PTX
Adding ptx filename: _cuobjdump_2.ptx
Adding arch: sm_20
Adding identifier: matrix.cu
## Adding new section ELF
Adding arch: sm_20
Adding identifier: matrix.cu
Done parsing!!!
GPGPU-Sim PTX: __cudaRegisterFunction _Z10testKernelPfS_S_jjjj : hostFun 0x0x804b4c0, fat_cubin_handle = 1
GPGPU-Sim PTX: allocating shared region for "__cuda___cuda_local_var_35276_35_non_const_shm_matrixB28" from 0x0 to 0x0 (shared memory space)
GPGPU-Sim PTX: allocating shared region for "__cuda___cuda_local_var_35281_35_non_const_shm_subMatrixA0284" from 0x100 to 0x0 (shared memory space)
GPGPU-Sim PTX: allocating shared region for "__cuda___cuda_local_var_35282_35_non_const_shm_subMatrixA11308" from 0x500 to 0x0 (shared memory space)
GPGPU-Sim PTX: instruction assembly for function '_Z10testKernelPfS_S_jjjj'...   done.
GPGPU-Sim PTX: finding reconvergence points for '_Z10testKernelPfS_S_jjjj'...
GPGPU-Sim PTX: Finding dominators for '_Z10testKernelPfS_S_jjjj'...
GPGPU-Sim PTX: Finding immediate dominators for '_Z10testKernelPfS_S_jjjj'...
GPGPU-Sim PTX: Finding postdominators for '_Z10testKernelPfS_S_jjjj'...
GPGPU-Sim PTX: Finding immediate postdominators for '_Z10testKernelPfS_S_jjjj'...
GPGPU-Sim PTX: pre-decoding instructions for '_Z10testKernelPfS_S_jjjj'...
GPGPU-Sim PTX: reconvergence points for _Z10testKernelPfS_S_jjjj...
GPGPU-Sim PTX:  1 (potential) branch divergence @  PC=0x018 (_1.ptx:71) @%p1 bra $Lt_0_10242;
GPGPU-Sim PTX:    immediate post dominator      @  PC=0x058 (_1.ptx:81) mov.u32 %r3, __cuda___cuda_local_var_35276_35_non_const_shm_matrixB28;
GPGPU-Sim PTX:  2 (potential) branch divergence @  PC=0x0a8 (_1.ptx:91) @%p2 bra $Lt_0_13826;
GPGPU-Sim PTX:    immediate post dominator      @  PC=0x3f8 (_1.ptx:219) ld.param.u32 %r74, [__cudaparm__Z10testKernelPfS_S_jjjj_d_matrixC];
GPGPU-Sim PTX:  3 (potential) branch divergence @  PC=0x168 (_1.ptx:117) @%p5 bra $Lt_0_11522;
GPGPU-Sim PTX:    immediate post dominator      @  PC=0x1b8 (_1.ptx:129) sub.s32 %r41, %r20, %r23;
GPGPU-Sim PTX:  4 (potential) branch divergence @  PC=0x208 (_1.ptx:139) @%p7 bra $Lt_0_12034;
GPGPU-Sim PTX:    immediate post dominator      @  PC=0x258 (_1.ptx:152) bar.sync 0;
GPGPU-Sim PTX:  5 (potential) branch divergence @  PC=0x260 (_1.ptx:153) @!%p3 bra $Lt_0_12546;
GPGPU-Sim PTX:    immediate post dominator      @  PC=0x3b8 (_1.ptx:208) bar.sync 0;
GPGPU-Sim PTX:  6 (potential) branch divergence @  PC=0x2b8 (_1.ptx:167) @!%p4 bra $Lt_0_14850;
GPGPU-Sim PTX:    immediate post dominator      @  PC=0x328 (_1.ptx:185) @!%p6 bra $Lt_0_15874;
GPGPU-Sim PTX:  7 (potential) branch divergence @  PC=0x2c8 (_1.ptx:169) @%p8 bra $Lt_0_14850;
GPGPU-Sim PTX:    immediate post dominator      @  PC=0x328 (_1.ptx:185) @!%p6 bra $Lt_0_15874;
GPGPU-Sim PTX:  8 (potential) branch divergence @  PC=0x2e8 (_1.ptx:173) @%p9 bra $Lt_0_14850;
GPGPU-Sim PTX:    immediate post dominator      @  PC=0x328 (_1.ptx:185) @!%p6 bra $Lt_0_15874;
GPGPU-Sim PTX:  9 (potential) branch divergence @  PC=0x2f8 (_1.ptx:175) @%p10 bra $Lt_0_14850;
GPGPU-Sim PTX:    immediate post dominator      @  PC=0x328 (_1.ptx:185) @!%p6 bra $Lt_0_15874;
GPGPU-Sim PTX: 10 (potential) branch divergence @  PC=0x328 (_1.ptx:185) @!%p6 bra $Lt_0_15874;
GPGPU-Sim PTX:    immediate post dominator      @  PC=0x398 (_1.ptx:202) add.s32 %r63, %r63, 1;
GPGPU-Sim PTX: 11 (potential) branch divergence @  PC=0x338 (_1.ptx:187) @%p11 bra $Lt_0_15874;
GPGPU-Sim PTX:    immediate post dominator      @  PC=0x398 (_1.ptx:202) add.s32 %r63, %r63, 1;
GPGPU-Sim PTX: 12 (potential) branch divergence @  PC=0x358 (_1.ptx:191) @%p12 bra $Lt_0_15874;
GPGPU-Sim PTX:    immediate post dominator      @  PC=0x398 (_1.ptx:202) add.s32 %r63, %r63, 1;
GPGPU-Sim PTX: 13 (potential) branch divergence @  PC=0x368 (_1.ptx:193) @%p13 bra $Lt_0_15874;
GPGPU-Sim PTX:    immediate post dominator      @  PC=0x398 (_1.ptx:202) add.s32 %r63, %r63, 1;
GPGPU-Sim PTX: 14 (potential) branch divergence @  PC=0x3b0 (_1.ptx:205) @%p14 bra $Lt_0_13058;
GPGPU-Sim PTX:    immediate post dominator      @  PC=0x3b8 (_1.ptx:208) bar.sync 0;
GPGPU-Sim PTX: 15 (potential) branch divergence @  PC=0x3d0 (_1.ptx:211) @%p15 bra $Lt_0_11266;
GPGPU-Sim PTX:    immediate post dominator      @  PC=0x3d8 (_1.ptx:212) bra.uni $Lt_0_10754;
GPGPU-Sim PTX: 16 (potential) branch divergence @  PC=0x3d8 (_1.ptx:212) bra.uni $Lt_0_10754;
GPGPU-Sim PTX:    immediate post dominator      @  PC=0x3f8 (_1.ptx:219) ld.param.u32 %r74, [__cudaparm__Z10testKernelPfS_S_jjjj_d_matrixC];
GPGPU-Sim PTX: ... end of reconvergence points for _Z10testKernelPfS_S_jjjj
GPGPU-Sim PTX: ... done pre-decoding instructions for '_Z10testKernelPfS_S_jjjj'.
GPGPU-Sim PTX: finished parsing EMBEDDED .ptx file _1.ptx
Adding _cuobjdump_2.ptx with cubin handle 1
GPGPU-Sim PTX: extracting embedded .ptx to temporary file "_ptx_gXK26z"
Running: cat _ptx_gXK26z | sed 's/.version 1.5/.version 1.4/' | sed 's/, texmode_independent//' | sed 's/\(\.extern \.const\[1\] .b8 \w\+\)\[\]/\1\[1\]/' | sed 's/const\[.\]/const\[0\]/g' > _ptx2_3N040H
GPGPU-Sim PTX: generating ptxinfo using "$CUDA_INSTALL_PATH/bin/ptxas --gpu-name=sm_20 -v _ptx2_3N040H --output-file  /dev/null 2> _ptx_gXK26zinfo"
GPGPU-Sim PTX: Kernel '_Z10testKernelPfS_S_jjjj' : regs=15, lmem=0, smem=2304, cmem=60
GPGPU-Sim PTX: removing ptxinfo using "rm -f _ptx_gXK26z _ptx2_3N040H _ptx_gXK26zinfo"
GPGPU-Sim PTX: loading globals with explicit initializers... 
GPGPU-Sim PTX: finished loading globals (0 bytes total).
GPGPU-Sim PTX: loading constants with explicit initializers...  done.
initalize A
matrix A
matrix B
Start Timer

GPGPU-Sim PTX: cudaLaunch for 0x0x804b4c0 (mode=performance simulation) on stream 0
GPGPU-Sim PTX: pushing kernel '_Z10testKernelPfS_S_jjjj' to stream 0, gridDim= (1,128,1) blockDim = (256,1,1) 
kernel '_Z10testKernelPfS_S_jjjj' transfer to GPU hardware scheduler
GPGPU-Sim uArch: Shader 1 bind to kernel 1 '_Z10testKernelPfS_S_jjjj'
GPGPU-Sim uArch: CTA/core = 6, limited by: threads
GPGPU-Sim uArch: core:  1, cta: 0 initialized @(1,0)
GPGPU-Sim uArch: Shader 2 bind to kernel 1 '_Z10testKernelPfS_S_jjjj'
GPGPU-Sim uArch: core:  2, cta: 0 initialized @(1,0)
GPGPU-Sim uArch: Shader 3 bind to kernel 1 '_Z10testKernelPfS_S_jjjj'
GPGPU-Sim uArch: core:  3, cta: 0 initialized @(1,0)
GPGPU-Sim uArch: Shader 4 bind to kernel 1 '_Z10testKernelPfS_S_jjjj'
GPGPU-Sim uArch: core:  4, cta: 0 initialized @(1,0)
GPGPU-Sim uArch: Shader 5 bind to kernel 1 '_Z10testKernelPfS_S_jjjj'
GPGPU-Sim uArch: core:  5, cta: 0 initialized @(1,0)
GPGPU-Sim uArch: Shader 6 bind to kernel 1 '_Z10testKernelPfS_S_jjjj'
GPGPU-Sim uArch: core:  6, cta: 0 initialized @(1,0)
GPGPU-Sim uArch: Shader 7 bind to kernel 1 '_Z10testKernelPfS_S_jjjj'
GPGPU-Sim uArch: core:  7, cta: 0 initialized @(1,0)
GPGPU-Sim uArch: Shader 8 bind to kernel 1 '_Z10testKernelPfS_S_jjjj'
GPGPU-Sim uArch: core:  8, cta: 0 initialized @(1,0)
GPGPU-Sim uArch: Shader 9 bind to kernel 1 '_Z10testKernelPfS_S_jjjj'
GPGPU-Sim uArch: core:  9, cta: 0 initialized @(1,0)
GPGPU-Sim uArch: Shader 10 bind to kernel 1 '_Z10testKernelPfS_S_jjjj'
GPGPU-Sim uArch: core: 10, cta: 0 initialized @(1,0)
GPGPU-Sim uArch: Shader 11 bind to kernel 1 '_Z10testKernelPfS_S_jjjj'
GPGPU-Sim uArch: core: 11, cta: 0 initialized @(1,0)
GPGPU-Sim uArch: Shader 12 bind to kernel 1 '_Z10testKernelPfS_S_jjjj'
GPGPU-Sim uArch: core: 12, cta: 0 initialized @(1,0)
GPGPU-Sim uArch: Shader 13 bind to kernel 1 '_Z10testKernelPfS_S_jjjj'
GPGPU-Sim uArch: core: 13, cta: 0 initialized @(1,0)
GPGPU-Sim uArch: Shader 14 bind to kernel 1 '_Z10testKernelPfS_S_jjjj'
GPGPU-Sim uArch: core: 14, cta: 0 initialized @(1,0)
GPGPU-Sim uArch: Shader 0 bind to kernel 1 '_Z10testKernelPfS_S_jjjj'
GPGPU-Sim uArch: core:  0, cta: 0 initialized @(1,0)
GPGPU-Sim uArch: core:  1, cta: 1 initialized @(2,0)
GPGPU-Sim uArch: core:  2, cta: 1 initialized @(2,0)
GPGPU-Sim uArch: core:  3, cta: 1 initialized @(2,0)
GPGPU-Sim uArch: core:  4, cta: 1 initialized @(2,0)
GPGPU-Sim uArch: core:  5, cta: 1 initialized @(2,0)
GPGPU-Sim uArch: core:  6, cta: 1 initialized @(2,0)
GPGPU-Sim uArch: core:  7, cta: 1 initialized @(2,0)
GPGPU-Sim uArch: core:  8, cta: 1 initialized @(2,0)
GPGPU-Sim uArch: core:  9, cta: 1 initialized @(2,0)
GPGPU-Sim uArch: core: 10, cta: 1 initialized @(2,0)
GPGPU-Sim uArch: core: 11, cta: 1 initialized @(2,0)
GPGPU-Sim uArch: core: 12, cta: 1 initialized @(2,0)
GPGPU-Sim uArch: core: 13, cta: 1 initialized @(2,0)
GPGPU-Sim uArch: core: 14, cta: 1 initialized @(2,0)
GPGPU-Sim uArch: core:  0, cta: 1 initialized @(2,0)
GPGPU-Sim uArch: core:  1, cta: 2 initialized @(3,0)
GPGPU-Sim uArch: core:  2, cta: 2 initialized @(3,0)
GPGPU-Sim uArch: core:  3, cta: 2 initialized @(3,0)
GPGPU-Sim uArch: core:  4, cta: 2 initialized @(3,0)
GPGPU-Sim uArch: core:  5, cta: 2 initialized @(3,0)
GPGPU-Sim uArch: core:  6, cta: 2 initialized @(3,0)
GPGPU-Sim uArch: core:  7, cta: 2 initialized @(3,0)
GPGPU-Sim uArch: core:  8, cta: 2 initialized @(3,0)
GPGPU-Sim uArch: core:  9, cta: 2 initialized @(3,0)
GPGPU-Sim uArch: core: 10, cta: 2 initialized @(3,0)
GPGPU-Sim uArch: core: 11, cta: 2 initialized @(3,0)
GPGPU-Sim uArch: core: 12, cta: 2 initialized @(3,0)
GPGPU-Sim uArch: core: 13, cta: 2 initialized @(3,0)
GPGPU-Sim uArch: core: 14, cta: 2 initialized @(3,0)
GPGPU-Sim uArch: core:  0, cta: 2 initialized @(3,0)
GPGPU-Sim uArch: core:  1, cta: 3 initialized @(4,0)
GPGPU-Sim uArch: core:  2, cta: 3 initialized @(4,0)
GPGPU-Sim uArch: core:  3, cta: 3 initialized @(4,0)
GPGPU-Sim uArch: core:  4, cta: 3 initialized @(4,0)
GPGPU-Sim uArch: core:  5, cta: 3 initialized @(4,0)
GPGPU-Sim uArch: core:  6, cta: 3 initialized @(4,0)
GPGPU-Sim uArch: core:  7, cta: 3 initialized @(4,0)
GPGPU-Sim uArch: core:  8, cta: 3 initialized @(4,0)
GPGPU-Sim uArch: core:  9, cta: 3 initialized @(4,0)
GPGPU-Sim uArch: core: 10, cta: 3 initialized @(4,0)
GPGPU-Sim uArch: core: 11, cta: 3 initialized @(4,0)
GPGPU-Sim uArch: core: 12, cta: 3 initialized @(4,0)
GPGPU-Sim uArch: core: 13, cta: 3 initialized @(4,0)
GPGPU-Sim uArch: core: 14, cta: 3 initialized @(4,0)
GPGPU-Sim uArch: core:  0, cta: 3 initialized @(4,0)
GPGPU-Sim uArch: core:  1, cta: 4 initialized @(5,0)
GPGPU-Sim uArch: core:  2, cta: 4 initialized @(5,0)
GPGPU-Sim uArch: core:  3, cta: 4 initialized @(5,0)
GPGPU-Sim uArch: core:  4, cta: 4 initialized @(5,0)
GPGPU-Sim uArch: core:  5, cta: 4 initialized @(5,0)
GPGPU-Sim uArch: core:  6, cta: 4 initialized @(5,0)
GPGPU-Sim uArch: core:  7, cta: 4 initialized @(5,0)
GPGPU-Sim uArch: core:  8, cta: 4 initialized @(5,0)
GPGPU-Sim uArch: core:  9, cta: 4 initialized @(5,0)
GPGPU-Sim uArch: core: 10, cta: 4 initialized @(5,0)
GPGPU-Sim uArch: core: 11, cta: 4 initialized @(5,0)
GPGPU-Sim uArch: core: 12, cta: 4 initialized @(5,0)
GPGPU-Sim uArch: core: 13, cta: 4 initialized @(5,0)
GPGPU-Sim uArch: core: 14, cta: 4 initialized @(5,0)
GPGPU-Sim uArch: core:  0, cta: 4 initialized @(5,0)
GPGPU-Sim uArch: core:  1, cta: 5 initialized @(6,0)
GPGPU-Sim uArch: core:  2, cta: 5 initialized @(6,0)
GPGPU-Sim uArch: core:  3, cta: 5 initialized @(6,0)
GPGPU-Sim uArch: core:  4, cta: 5 initialized @(6,0)
GPGPU-Sim uArch: core:  5, cta: 5 initialized @(6,0)
GPGPU-Sim uArch: core:  6, cta: 5 initialized @(6,0)
GPGPU-Sim uArch: core:  7, cta: 5 initialized @(6,0)
GPGPU-Sim uArch: core:  8, cta: 5 initialized @(6,0)
GPGPU-Sim uArch: core:  9, cta: 5 initialized @(6,0)
GPGPU-Sim uArch: core: 10, cta: 5 initialized @(6,0)
GPGPU-Sim uArch: core: 11, cta: 5 initialized @(6,0)
GPGPU-Sim uArch: core: 12, cta: 5 initialized @(6,0)
GPGPU-Sim uArch: core: 13, cta: 5 initialized @(6,0)
GPGPU-Sim uArch: core: 14, cta: 5 initialized @(6,0)
GPGPU-Sim uArch: core:  0, cta: 5 initialized @(6,0)
GPGPU-Sim PTX: 100000 instructions simulated : ctaid=(0,62,0) tid=(127,0,0)
GPGPU-Sim uArch: cycles simulated: 500  inst.: 126304 (ipc=252.6) sim_rate=126304 (inst/sec) elapsed = 0:0:00:01 / Wed Mar 11 17:03:22 2015
GPGPU-Sim PTX: 200000 instructions simulated : ctaid=(0,72,0) tid=(255,0,0)
GPGPU-Sim PTX: 300000 instructions simulated : ctaid=(0,3,0) tid=(159,0,0)
GPGPU-Sim PTX: 400000 instructions simulated : ctaid=(0,67,0) tid=(255,0,0)
GPGPU-Sim PTX: 500000 instructions simulated : ctaid=(0,28,0) tid=(255,0,0)
GPGPU-Sim PTX: 600000 instructions simulated : ctaid=(0,75,0) tid=(31,0,0)
GPGPU-Sim PTX: 700000 instructions simulated : ctaid=(0,6,0) tid=(191,0,0)
GPGPU-Sim PTX: 800000 instructions simulated : ctaid=(0,12,0) tid=(255,0,0)
GPGPU-Sim PTX: 900000 instructions simulated : ctaid=(0,64,0) tid=(127,0,0)
GPGPU-Sim PTX: 1000000 instructions simulated : ctaid=(0,85,0) tid=(159,0,0)
GPGPU-Sim uArch: cycles simulated: 2000  inst.: 953216 (ipc=476.6) sim_rate=476608 (inst/sec) elapsed = 0:0:00:02 / Wed Mar 11 17:03:24 2015
GPGPU-Sim PTX: 1100000 instructions simulated : ctaid=(0,70,0) tid=(127,0,0)
GPGPU-Sim uArch: cycles simulated: 2500  inst.: 1108960 (ipc=443.6) sim_rate=369653 (inst/sec) elapsed = 0:0:00:03 / Wed Mar 11 17:03:25 2015
GPGPU-Sim PTX: 1200000 instructions simulated : ctaid=(0,64,0) tid=(127,0,0)
GPGPU-Sim PTX: 1300000 instructions simulated : ctaid=(0,51,0) tid=(159,0,0)
GPGPU-Sim PTX: 1400000 instructions simulated : ctaid=(0,61,0) tid=(31,0,0)
GPGPU-Sim PTX: 1500000 instructions simulated : ctaid=(0,11,0) tid=(191,0,0)
GPGPU-Sim PTX: 1600000 instructions simulated : ctaid=(0,66,0) tid=(127,0,0)
GPGPU-Sim uArch: cycles simulated: 3500  inst.: 1534816 (ipc=438.5) sim_rate=383704 (inst/sec) elapsed = 0:0:00:04 / Wed Mar 11 17:03:26 2015
GPGPU-Sim PTX: 1700000 instructions simulated : ctaid=(0,10,0) tid=(127,0,0)
GPGPU-Sim PTX: 1800000 instructions simulated : ctaid=(0,37,0) tid=(63,0,0)
GPGPU-Sim PTX: 1900000 instructions simulated : ctaid=(0,1,0) tid=(255,0,0)
GPGPU-Sim uArch: cycles simulated: 4000  inst.: 1813120 (ipc=453.3) sim_rate=362624 (inst/sec) elapsed = 0:0:00:05 / Wed Mar 11 17:03:27 2015
GPGPU-Sim PTX: 2000000 instructions simulated : ctaid=(0,13,0) tid=(63,0,0)
GPGPU-Sim PTX: 2100000 instructions simulated : ctaid=(0,21,0) tid=(31,0,0)
GPGPU-Sim PTX: 2200000 instructions simulated : ctaid=(0,61,0) tid=(159,0,0)
GPGPU-Sim PTX: 2300000 instructions simulated : ctaid=(0,53,0) tid=(191,0,0)
GPGPU-Sim PTX: 2400000 instructions simulated : ctaid=(0,68,0) tid=(191,0,0)
GPGPU-Sim PTX: 2500000 instructions simulated : ctaid=(0,0,0) tid=(191,0,0)
GPGPU-Sim PTX: 2600000 instructions simulated : ctaid=(0,24,0) tid=(129,0,0)
GPGPU-Sim PTX: 2700000 instructions simulated : ctaid=(0,22,0) tid=(143,0,0)
GPGPU-Sim PTX: 2800000 instructions simulated : ctaid=(0,14,0) tid=(48,0,0)
GPGPU-Sim uArch: cycles simulated: 5000  inst.: 2474874 (ipc=495.0) sim_rate=412479 (inst/sec) elapsed = 0:0:00:06 / Wed Mar 11 17:03:28 2015
GPGPU-Sim PTX: 2900000 instructions simulated : ctaid=(0,33,0) tid=(94,0,0)
GPGPU-Sim PTX: 3000000 instructions simulated : ctaid=(0,24,0) tid=(43,0,0)
GPGPU-Sim PTX: 3100000 instructions simulated : ctaid=(0,28,0) tid=(153,0,0)
GPGPU-Sim PTX: 3200000 instructions simulated : ctaid=(0,11,0) tid=(41,0,0)
GPGPU-Sim uArch: cycles simulated: 5500  inst.: 2818919 (ipc=512.5) sim_rate=402702 (inst/sec) elapsed = 0:0:00:07 / Wed Mar 11 17:03:29 2015
GPGPU-Sim PTX: 3300000 instructions simulated : ctaid=(0,7,0) tid=(91,0,0)
GPGPU-Sim PTX: 3400000 instructions simulated : ctaid=(0,44,0) tid=(71,0,0)
GPGPU-Sim PTX: 3500000 instructions simulated : ctaid=(0,16,0) tid=(31,0,0)
GPGPU-Sim PTX: 3600000 instructions simulated : ctaid=(0,6,0) tid=(129,0,0)
GPGPU-Sim PTX: 3700000 instructions simulated : ctaid=(0,17,0) tid=(78,0,0)
GPGPU-Sim uArch: cycles simulated: 6000  inst.: 3151816 (ipc=525.3) sim_rate=393977 (inst/sec) elapsed = 0:0:00:08 / Wed Mar 11 17:03:30 2015
GPGPU-Sim PTX: 3800000 instructions simulated : ctaid=(0,25,0) tid=(99,0,0)
GPGPU-Sim PTX: 3900000 instructions simulated : ctaid=(0,4,0) tid=(205,0,0)
GPGPU-Sim PTX: 4000000 instructions simulated : ctaid=(0,34,0) tid=(16,0,0)
GPGPU-Sim PTX: 4100000 instructions simulated : ctaid=(0,16,0) tid=(248,0,0)
GPGPU-Sim PTX: 4200000 instructions simulated : ctaid=(0,17,0) tid=(10,0,0)
GPGPU-Sim PTX: 4300000 instructions simulated : ctaid=(0,22,0) tid=(2,0,0)
GPGPU-Sim PTX: 4400000 instructions simulated : ctaid=(0,36,0) tid=(23,0,0)
GPGPU-Sim PTX: 4500000 instructions simulated : ctaid=(0,5,0) tid=(170,0,0)
GPGPU-Sim PTX: 4600000 instructions simulated : ctaid=(0,39,0) tid=(70,0,0)
GPGPU-Sim uArch: cycles simulated: 7000  inst.: 3826480 (ipc=546.6) sim_rate=425164 (inst/sec) elapsed = 0:0:00:09 / Wed Mar 11 17:03:31 2015
GPGPU-Sim PTX: 4700000 instructions simulated : ctaid=(0,31,0) tid=(46,0,0)
GPGPU-Sim PTX: 4800000 instructions simulated : ctaid=(0,50,0) tid=(51,0,0)
GPGPU-Sim PTX: 4900000 instructions simulated : ctaid=(0,55,0) tid=(18,0,0)
GPGPU-Sim PTX: 5000000 instructions simulated : ctaid=(0,6,0) tid=(46,0,0)
GPGPU-Sim uArch: cycles simulated: 7500  inst.: 4188754 (ipc=558.5) sim_rate=418875 (inst/sec) elapsed = 0:0:00:10 / Wed Mar 11 17:03:32 2015
GPGPU-Sim PTX: 5100000 instructions simulated : ctaid=(0,10,0) tid=(67,0,0)
GPGPU-Sim PTX: 5200000 instructions simulated : ctaid=(0,23,0) tid=(235,0,0)
GPGPU-Sim PTX: 5300000 instructions simulated : ctaid=(0,33,0) tid=(192,0,0)
GPGPU-Sim PTX: 5400000 instructions simulated : ctaid=(0,42,0) tid=(37,0,0)
GPGPU-Sim uArch: cycles simulated: 8000  inst.: 4526880 (ipc=565.9) sim_rate=411534 (inst/sec) elapsed = 0:0:00:11 / Wed Mar 11 17:03:33 2015
GPGPU-Sim PTX: 5500000 instructions simulated : ctaid=(0,2,0) tid=(160,0,0)
GPGPU-Sim PTX: 5600000 instructions simulated : ctaid=(0,0,0) tid=(238,0,0)
GPGPU-Sim PTX: 5700000 instructions simulated : ctaid=(0,33,0) tid=(251,0,0)
GPGPU-Sim PTX: 5800000 instructions simulated : ctaid=(0,1,0) tid=(105,0,0)
GPGPU-Sim PTX: 5900000 instructions simulated : ctaid=(0,10,0) tid=(112,0,0)
GPGPU-Sim PTX: 6000000 instructions simulated : ctaid=(0,34,0) tid=(202,0,0)
GPGPU-Sim PTX: 6100000 instructions simulated : ctaid=(0,4,0) tid=(23,0,0)
GPGPU-Sim PTX: 6200000 instructions simulated : ctaid=(0,13,0) tid=(216,0,0)
GPGPU-Sim PTX: 6300000 instructions simulated : ctaid=(0,15,0) tid=(207,0,0)
GPGPU-Sim uArch: cycles simulated: 9000  inst.: 5234182 (ipc=581.6) sim_rate=402629 (inst/sec) elapsed = 0:0:00:13 / Wed Mar 11 17:03:35 2015
GPGPU-Sim PTX: 6400000 instructions simulated : ctaid=(0,12,0) tid=(96,0,0)
GPGPU-Sim PTX: 6500000 instructions simulated : ctaid=(0,30,0) tid=(219,0,0)
GPGPU-Sim PTX: 6600000 instructions simulated : ctaid=(0,10,0) tid=(250,0,0)
GPGPU-Sim PTX: 6700000 instructions simulated : ctaid=(0,25,0) tid=(38,0,0)
GPGPU-Sim PTX: 6800000 instructions simulated : ctaid=(0,22,0) tid=(230,0,0)
GPGPU-Sim PTX: 6900000 instructions simulated : ctaid=(0,22,0) tid=(77,0,0)
GPGPU-Sim PTX: 7000000 instructions simulated : ctaid=(0,27,0) tid=(14,0,0)
GPGPU-Sim PTX: 7100000 instructions simulated : ctaid=(0,36,0) tid=(208,0,0)
GPGPU-Sim PTX: 7200000 instructions simulated : ctaid=(0,29,0) tid=(171,0,0)
GPGPU-Sim uArch: cycles simulated: 10000  inst.: 5926488 (ipc=592.6) sim_rate=423320 (inst/sec) elapsed = 0:0:00:14 / Wed Mar 11 17:03:36 2015
GPGPU-Sim PTX: 7300000 instructions simulated : ctaid=(0,10,0) tid=(16,0,0)
GPGPU-Sim PTX: 7400000 instructions simulated : ctaid=(0,12,0) tid=(109,0,0)
GPGPU-Sim PTX: 7500000 instructions simulated : ctaid=(0,5,0) tid=(210,0,0)
GPGPU-Sim PTX: 7600000 instructions simulated : ctaid=(0,19,0) tid=(252,0,0)
GPGPU-Sim PTX: 7700000 instructions simulated : ctaid=(0,27,0) tid=(38,0,0)
GPGPU-Sim uArch: cycles simulated: 10500  inst.: 6275873 (ipc=597.7) sim_rate=418391 (inst/sec) elapsed = 0:0:00:15 / Wed Mar 11 17:03:37 2015
GPGPU-Sim PTX: 7800000 instructions simulated : ctaid=(0,28,0) tid=(136,0,0)
GPGPU-Sim PTX: 7900000 instructions simulated : ctaid=(0,10,0) tid=(157,0,0)
GPGPU-Sim PTX: 8000000 instructions simulated : ctaid=(0,29,0) tid=(213,0,0)
GPGPU-Sim PTX: 8100000 instructions simulated : ctaid=(0,13,0) tid=(50,0,0)
GPGPU-Sim uArch: cycles simulated: 11000  inst.: 6608645 (ipc=600.8) sim_rate=413040 (inst/sec) elapsed = 0:0:00:16 / Wed Mar 11 17:03:38 2015
GPGPU-Sim PTX: 8200000 instructions simulated : ctaid=(0,13,0) tid=(218,0,0)
GPGPU-Sim PTX: 8300000 instructions simulated : ctaid=(0,11,0) tid=(245,0,0)
GPGPU-Sim PTX: 8400000 instructions simulated : ctaid=(0,11,0) tid=(31,0,0)
GPGPU-Sim PTX: 8500000 instructions simulated : ctaid=(0,12,0) tid=(107,0,0)
GPGPU-Sim PTX: 8600000 instructions simulated : ctaid=(0,18,0) tid=(201,0,0)
GPGPU-Sim PTX: 8700000 instructions simulated : ctaid=(0,5,0) tid=(194,0,0)
GPGPU-Sim PTX: 8800000 instructions simulated : ctaid=(0,69,0) tid=(67,0,0)
GPGPU-Sim PTX: 8900000 instructions simulated : ctaid=(0,14,0) tid=(186,0,0)
GPGPU-Sim PTX: 9000000 instructions simulated : ctaid=(0,65,0) tid=(148,0,0)
GPGPU-Sim uArch: cycles simulated: 12000  inst.: 7280556 (ipc=606.7) sim_rate=428268 (inst/sec) elapsed = 0:0:00:17 / Wed Mar 11 17:03:39 2015
GPGPU-Sim PTX: 9100000 instructions simulated : ctaid=(0,3,0) tid=(34,0,0)
GPGPU-Sim PTX: 9200000 instructions simulated : ctaid=(0,46,0) tid=(153,0,0)
GPGPU-Sim PTX: 9300000 instructions simulated : ctaid=(0,50,0) tid=(208,0,0)
GPGPU-Sim PTX: 9400000 instructions simulated : ctaid=(0,65,0) tid=(201,0,0)
GPGPU-Sim uArch: cycles simulated: 12500  inst.: 7623070 (ipc=609.8) sim_rate=423503 (inst/sec) elapsed = 0:0:00:18 / Wed Mar 11 17:03:40 2015
GPGPU-Sim PTX: 9500000 instructions simulated : ctaid=(0,84,0) tid=(20,0,0)
GPGPU-Sim PTX: 9600000 instructions simulated : ctaid=(0,60,0) tid=(34,0,0)
GPGPU-Sim PTX: 9700000 instructions simulated : ctaid=(0,12,0) tid=(226,0,0)
GPGPU-Sim PTX: 9800000 instructions simulated : ctaid=(0,5,0) tid=(103,0,0)
GPGPU-Sim PTX: 9900000 instructions simulated : ctaid=(0,12,0) tid=(208,0,0)
GPGPU-Sim uArch: cycles simulated: 13000  inst.: 8017250 (ipc=616.7) sim_rate=421960 (inst/sec) elapsed = 0:0:00:19 / Wed Mar 11 17:03:41 2015
GPGPU-Sim PTX: 10000000 instructions simulated : ctaid=(0,7,0) tid=(208,0,0)
GPGPU-Sim PTX: 10100000 instructions simulated : ctaid=(0,14,0) tid=(14,0,0)
GPGPU-Sim PTX: 10200000 instructions simulated : ctaid=(0,2,0) tid=(14,0,0)
GPGPU-Sim PTX: 10300000 instructions simulated : ctaid=(0,26,0) tid=(87,0,0)
GPGPU-Sim uArch: cycles simulated: 13500  inst.: 8361874 (ipc=619.4) sim_rate=418093 (inst/sec) elapsed = 0:0:00:20 / Wed Mar 11 17:03:42 2015
GPGPU-Sim PTX: 10400000 instructions simulated : ctaid=(0,26,0) tid=(22,0,0)
GPGPU-Sim PTX: 10500000 instructions simulated : ctaid=(0,20,0) tid=(242,0,0)
GPGPU-Sim PTX: 10600000 instructions simulated : ctaid=(0,34,0) tid=(34,0,0)
GPGPU-Sim PTX: 10700000 instructions simulated : ctaid=(0,10,0) tid=(105,0,0)
GPGPU-Sim PTX: 10800000 instructions simulated : ctaid=(0,8,0) tid=(42,0,0)
GPGPU-Sim uArch: cycles simulated: 14000  inst.: 8703490 (ipc=621.7) sim_rate=414451 (inst/sec) elapsed = 0:0:00:21 / Wed Mar 11 17:03:43 2015
GPGPU-Sim PTX: 10900000 instructions simulated : ctaid=(0,31,0) tid=(224,0,0)
GPGPU-Sim PTX: 11000000 instructions simulated : ctaid=(0,10,0) tid=(127,0,0)
GPGPU-Sim PTX: 11100000 instructions simulated : ctaid=(0,7,0) tid=(158,0,0)
GPGPU-Sim PTX: 11200000 instructions simulated : ctaid=(0,1,0) tid=(114,0,0)
GPGPU-Sim uArch: cycles simulated: 14500  inst.: 9045735 (ipc=623.8) sim_rate=411169 (inst/sec) elapsed = 0:0:00:22 / Wed Mar 11 17:03:44 2015
GPGPU-Sim PTX: 11300000 instructions simulated : ctaid=(0,5,0) tid=(214,0,0)
GPGPU-Sim PTX: 11400000 instructions simulated : ctaid=(0,11,0) tid=(180,0,0)
GPGPU-Sim PTX: 11500000 instructions simulated : ctaid=(0,27,0) tid=(255,0,0)
GPGPU-Sim PTX: 11600000 instructions simulated : ctaid=(0,10,0) tid=(114,0,0)
GPGPU-Sim PTX: 11700000 instructions simulated : ctaid=(0,22,0) tid=(90,0,0)
GPGPU-Sim PTX: 11800000 instructions simulated : ctaid=(0,34,0) tid=(108,0,0)
GPGPU-Sim PTX: 11900000 instructions simulated : ctaid=(0,23,0) tid=(87,0,0)
GPGPU-Sim PTX: 12000000 instructions simulated : ctaid=(0,2,0) tid=(233,0,0)
GPGPU-Sim PTX: 12100000 instructions simulated : ctaid=(0,22,0) tid=(147,0,0)
GPGPU-Sim uArch: cycles simulated: 15500  inst.: 9744906 (ipc=628.7) sim_rate=423691 (inst/sec) elapsed = 0:0:00:23 / Wed Mar 11 17:03:45 2015
GPGPU-Sim PTX: 12200000 instructions simulated : ctaid=(0,33,0) tid=(227,0,0)
GPGPU-Sim PTX: 12300000 instructions simulated : ctaid=(0,9,0) tid=(238,0,0)
GPGPU-Sim PTX: 12400000 instructions simulated : ctaid=(0,29,0) tid=(239,0,0)
GPGPU-Sim PTX: 12500000 instructions simulated : ctaid=(0,6,0) tid=(86,0,0)
GPGPU-Sim uArch: cycles simulated: 16000  inst.: 10112036 (ipc=632.0) sim_rate=421334 (inst/sec) elapsed = 0:0:00:24 / Wed Mar 11 17:03:46 2015
GPGPU-Sim PTX: 12600000 instructions simulated : ctaid=(0,8,0) tid=(141,0,0)
GPGPU-Sim PTX: 12700000 instructions simulated : ctaid=(0,38,0) tid=(19,0,0)
GPGPU-Sim PTX: 12800000 instructions simulated : ctaid=(0,12,0) tid=(58,0,0)
GPGPU-Sim PTX: 12900000 instructions simulated : ctaid=(0,30,0) tid=(134,0,0)
GPGPU-Sim PTX: 13000000 instructions simulated : ctaid=(0,7,0) tid=(64,0,0)
GPGPU-Sim uArch: cycles simulated: 16500  inst.: 10451705 (ipc=633.4) sim_rate=418068 (inst/sec) elapsed = 0:0:00:25 / Wed Mar 11 17:03:47 2015
GPGPU-Sim PTX: 13100000 instructions simulated : ctaid=(0,4,0) tid=(54,0,0)
GPGPU-Sim PTX: 13200000 instructions simulated : ctaid=(0,14,0) tid=(147,0,0)
GPGPU-Sim PTX: 13300000 instructions simulated : ctaid=(0,19,0) tid=(55,0,0)
GPGPU-Sim PTX: 13400000 instructions simulated : ctaid=(0,13,0) tid=(108,0,0)
GPGPU-Sim uArch: cycles simulated: 17000  inst.: 10794105 (ipc=634.9) sim_rate=415157 (inst/sec) elapsed = 0:0:00:26 / Wed Mar 11 17:03:48 2015
GPGPU-Sim PTX: 13500000 instructions simulated : ctaid=(0,1,0) tid=(253,0,0)
GPGPU-Sim PTX: 13600000 instructions simulated : ctaid=(0,3,0) tid=(109,0,0)
GPGPU-Sim PTX: 13700000 instructions simulated : ctaid=(0,9,0) tid=(110,0,0)
GPGPU-Sim PTX: 13800000 instructions simulated : ctaid=(0,5,0) tid=(42,0,0)
GPGPU-Sim uArch: cycles simulated: 17500  inst.: 11153767 (ipc=637.4) sim_rate=413102 (inst/sec) elapsed = 0:0:00:27 / Wed Mar 11 17:03:49 2015
GPGPU-Sim PTX: 13900000 instructions simulated : ctaid=(0,9,0) tid=(178,0,0)
GPGPU-Sim PTX: 14000000 instructions simulated : ctaid=(0,8,0) tid=(106,0,0)
GPGPU-Sim PTX: 14100000 instructions simulated : ctaid=(0,13,0) tid=(51,0,0)
GPGPU-Sim PTX: 14200000 instructions simulated : ctaid=(0,16,0) tid=(212,0,0)
GPGPU-Sim PTX: 14300000 instructions simulated : ctaid=(0,0,0) tid=(178,0,0)
GPGPU-Sim uArch: cycles simulated: 18000  inst.: 11494155 (ipc=638.6) sim_rate=410505 (inst/sec) elapsed = 0:0:00:28 / Wed Mar 11 17:03:50 2015
GPGPU-Sim PTX: 14400000 instructions simulated : ctaid=(0,55,0) tid=(180,0,0)
GPGPU-Sim PTX: 14500000 instructions simulated : ctaid=(0,27,0) tid=(200,0,0)
GPGPU-Sim PTX: 14600000 instructions simulated : ctaid=(0,21,0) tid=(75,0,0)
GPGPU-Sim PTX: 14700000 instructions simulated : ctaid=(0,10,0) tid=(235,0,0)
GPGPU-Sim uArch: cycles simulated: 18500  inst.: 11851144 (ipc=640.6) sim_rate=408660 (inst/sec) elapsed = 0:0:00:29 / Wed Mar 11 17:03:51 2015
GPGPU-Sim PTX: 14800000 instructions simulated : ctaid=(0,36,0) tid=(95,0,0)
GPGPU-Sim PTX: 14900000 instructions simulated : ctaid=(0,24,0) tid=(52,0,0)
GPGPU-Sim PTX: 15000000 instructions simulated : ctaid=(0,25,0) tid=(227,0,0)
GPGPU-Sim PTX: 15100000 instructions simulated : ctaid=(0,11,0) tid=(93,0,0)
GPGPU-Sim PTX: 15200000 instructions simulated : ctaid=(0,11,0) tid=(10,0,0)
GPGPU-Sim uArch: cycles simulated: 19000  inst.: 12203679 (ipc=642.3) sim_rate=406789 (inst/sec) elapsed = 0:0:00:30 / Wed Mar 11 17:03:52 2015
GPGPU-Sim PTX: 15300000 instructions simulated : ctaid=(0,26,0) tid=(96,0,0)
GPGPU-Sim PTX: 15400000 instructions simulated : ctaid=(0,6,0) tid=(148,0,0)
GPGPU-Sim PTX: 15500000 instructions simulated : ctaid=(0,0,0) tid=(54,0,0)
GPGPU-Sim PTX: 15600000 instructions simulated : ctaid=(0,24,0) tid=(48,0,0)
GPGPU-Sim uArch: cycles simulated: 19500  inst.: 12540865 (ipc=643.1) sim_rate=404544 (inst/sec) elapsed = 0:0:00:31 / Wed Mar 11 17:03:53 2015
GPGPU-Sim PTX: 15700000 instructions simulated : ctaid=(0,8,0) tid=(145,0,0)
GPGPU-Sim PTX: 15800000 instructions simulated : ctaid=(0,76,0) tid=(148,0,0)
GPGPU-Sim PTX: 15900000 instructions simulated : ctaid=(0,11,0) tid=(104,0,0)
GPGPU-Sim PTX: 16000000 instructions simulated : ctaid=(0,21,0) tid=(239,0,0)
GPGPU-Sim uArch: cycles simulated: 20000  inst.: 12879767 (ipc=644.0) sim_rate=402492 (inst/sec) elapsed = 0:0:00:32 / Wed Mar 11 17:03:54 2015
GPGPU-Sim PTX: 16100000 instructions simulated : ctaid=(0,26,0) tid=(63,0,0)
GPGPU-Sim PTX: 16200000 instructions simulated : ctaid=(0,5,0) tid=(233,0,0)
GPGPU-Sim PTX: 16300000 instructions simulated : ctaid=(0,32,0) tid=(108,0,0)
GPGPU-Sim PTX: 16400000 instructions simulated : ctaid=(0,33,0) tid=(88,0,0)
GPGPU-Sim PTX: 16500000 instructions simulated : ctaid=(0,1,0) tid=(188,0,0)
GPGPU-Sim PTX: 16600000 instructions simulated : ctaid=(0,2,0) tid=(142,0,0)
GPGPU-Sim PTX: 16700000 instructions simulated : ctaid=(0,17,0) tid=(186,0,0)
GPGPU-Sim PTX: 16800000 instructions simulated : ctaid=(0,4,0) tid=(187,0,0)
GPGPU-Sim PTX: 16900000 instructions simulated : ctaid=(0,9,0) tid=(240,0,0)
GPGPU-Sim uArch: cycles simulated: 21000  inst.: 13561236 (ipc=645.8) sim_rate=410946 (inst/sec) elapsed = 0:0:00:33 / Wed Mar 11 17:03:55 2015
GPGPU-Sim PTX: 17000000 instructions simulated : ctaid=(0,50,0) tid=(118,0,0)
GPGPU-Sim PTX: 17100000 instructions simulated : ctaid=(0,44,0) tid=(172,0,0)
GPGPU-Sim PTX: 17200000 instructions simulated : ctaid=(0,30,0) tid=(8,0,0)
GPGPU-Sim PTX: 17300000 instructions simulated : ctaid=(0,31,0) tid=(13,0,0)
GPGPU-Sim PTX: 17400000 instructions simulated : ctaid=(0,16,0) tid=(6,0,0)
GPGPU-Sim uArch: cycles simulated: 21500  inst.: 13932626 (ipc=648.0) sim_rate=409783 (inst/sec) elapsed = 0:0:00:34 / Wed Mar 11 17:03:56 2015
GPGPU-Sim PTX: 17500000 instructions simulated : ctaid=(0,56,0) tid=(179,0,0)
GPGPU-Sim PTX: 17600000 instructions simulated : ctaid=(0,8,0) tid=(105,0,0)
GPGPU-Sim PTX: 17700000 instructions simulated : ctaid=(0,12,0) tid=(59,0,0)
GPGPU-Sim PTX: 17800000 instructions simulated : ctaid=(0,9,0) tid=(211,0,0)
GPGPU-Sim uArch: cycles simulated: 22000  inst.: 14289069 (ipc=649.5) sim_rate=408259 (inst/sec) elapsed = 0:0:00:35 / Wed Mar 11 17:03:57 2015
GPGPU-Sim PTX: 17900000 instructions simulated : ctaid=(0,26,0) tid=(26,0,0)
GPGPU-Sim PTX: 18000000 instructions simulated : ctaid=(0,25,0) tid=(35,0,0)
GPGPU-Sim PTX: 18100000 instructions simulated : ctaid=(0,0,0) tid=(107,0,0)
GPGPU-Sim PTX: 18200000 instructions simulated : ctaid=(0,28,0) tid=(123,0,0)
GPGPU-Sim uArch: cycles simulated: 22500  inst.: 14627449 (ipc=650.1) sim_rate=406318 (inst/sec) elapsed = 0:0:00:36 / Wed Mar 11 17:03:58 2015
GPGPU-Sim PTX: 18300000 instructions simulated : ctaid=(0,9,0) tid=(248,0,0)
GPGPU-Sim uArch: Shader 1 finished CTA #0 (22563,0), 5 CTAs running
GPGPU-Sim uArch: core:  1, cta: 0 initialized @(22564,0)
GPGPU-Sim PTX: 18400000 instructions simulated : ctaid=(0,17,0) tid=(141,0,0)
GPGPU-Sim PTX: 18500000 instructions simulated : ctaid=(0,4,0) tid=(121,0,0)
GPGPU-Sim PTX: 18600000 instructions simulated : ctaid=(0,20,0) tid=(194,0,0)
GPGPU-Sim PTX: 18700000 instructions simulated : ctaid=(0,3,0) tid=(167,0,0)
GPGPU-Sim uArch: Shader 2 finished CTA #0 (23033,0), 5 CTAs running
GPGPU-Sim uArch: core:  2, cta: 0 initialized @(23034,0)
GPGPU-Sim PTX: 18800000 instructions simulated : ctaid=(0,32,0) tid=(248,0,0)
GPGPU-Sim PTX: 18900000 instructions simulated : ctaid=(0,10,0) tid=(46,0,0)
GPGPU-Sim PTX: 19000000 instructions simulated : ctaid=(0,7,0) tid=(7,0,0)
GPGPU-Sim PTX: 19100000 instructions simulated : ctaid=(0,8,0) tid=(251,0,0)
GPGPU-Sim uArch: cycles simulated: 23500  inst.: 15299933 (ipc=651.1) sim_rate=413511 (inst/sec) elapsed = 0:0:00:37 / Wed Mar 11 17:03:59 2015
GPGPU-Sim PTX: 19200000 instructions simulated : ctaid=(0,31,0) tid=(145,0,0)
GPGPU-Sim PTX: 19300000 instructions simulated : ctaid=(0,36,0) tid=(230,0,0)
GPGPU-Sim PTX: 19400000 instructions simulated : ctaid=(0,16,0) tid=(170,0,0)
GPGPU-Sim uArch: Shader 3 finished CTA #0 (23815,0), 5 CTAs running
GPGPU-Sim uArch: core:  3, cta: 0 initialized @(23816,0)
GPGPU-Sim PTX: 19500000 instructions simulated : ctaid=(0,20,0) tid=(126,0,0)
GPGPU-Sim PTX: 19600000 instructions simulated : ctaid=(0,13,0) tid=(13,0,0)
GPGPU-Sim uArch: cycles simulated: 24000  inst.: 15650609 (ipc=652.1) sim_rate=411858 (inst/sec) elapsed = 0:0:00:38 / Wed Mar 11 17:04:00 2015
GPGPU-Sim PTX: 19700000 instructions simulated : ctaid=(0,29,0) tid=(54,0,0)
GPGPU-Sim PTX: 19800000 instructions simulated : ctaid=(0,27,0) tid=(225,0,0)
GPGPU-Sim PTX: 19900000 instructions simulated : ctaid=(0,6,0) tid=(11,0,0)
GPGPU-Sim PTX: 20000000 instructions simulated : ctaid=(0,16,0) tid=(217,0,0)
GPGPU-Sim uArch: cycles simulated: 24500  inst.: 16006503 (ipc=653.3) sim_rate=410423 (inst/sec) elapsed = 0:0:00:39 / Wed Mar 11 17:04:01 2015
GPGPU-Sim PTX: 20100000 instructions simulated : ctaid=(0,14,0) tid=(18,0,0)
GPGPU-Sim PTX: 20200000 instructions simulated : ctaid=(0,85,0) tid=(130,0,0)
GPGPU-Sim PTX: 20300000 instructions simulated : ctaid=(0,22,0) tid=(175,0,0)
GPGPU-Sim PTX: 20400000 instructions simulated : ctaid=(0,80,0) tid=(141,0,0)
GPGPU-Sim uArch: cycles simulated: 25000  inst.: 16341133 (ipc=653.6) sim_rate=408528 (inst/sec) elapsed = 0:0:00:40 / Wed Mar 11 17:04:02 2015
GPGPU-Sim PTX: 20500000 instructions simulated : ctaid=(0,38,0) tid=(247,0,0)
GPGPU-Sim PTX: 20600000 instructions simulated : ctaid=(0,26,0) tid=(176,0,0)
GPGPU-Sim PTX: 20700000 instructions simulated : ctaid=(0,16,0) tid=(142,0,0)
GPGPU-Sim PTX: 20800000 instructions simulated : ctaid=(0,57,0) tid=(166,0,0)
GPGPU-Sim PTX: 20900000 instructions simulated : ctaid=(0,23,0) tid=(119,0,0)
GPGPU-Sim PTX: 21000000 instructions simulated : ctaid=(0,7,0) tid=(142,0,0)
GPGPU-Sim PTX: 21100000 instructions simulated : ctaid=(0,17,0) tid=(24,0,0)
GPGPU-Sim PTX: 21200000 instructions simulated : ctaid=(0,3,0) tid=(176,0,0)
GPGPU-Sim PTX: 21300000 instructions simulated : ctaid=(0,29,0) tid=(181,0,0)
GPGPU-Sim uArch: cycles simulated: 26000  inst.: 17029634 (ipc=655.0) sim_rate=415356 (inst/sec) elapsed = 0:0:00:41 / Wed Mar 11 17:04:03 2015
GPGPU-Sim PTX: 21400000 instructions simulated : ctaid=(0,24,0) tid=(75,0,0)
GPGPU-Sim PTX: 21500000 instructions simulated : ctaid=(0,19,0) tid=(114,0,0)
GPGPU-Sim uArch: Shader 4 finished CTA #0 (26164,0), 5 CTAs running
GPGPU-Sim uArch: core:  4, cta: 0 initialized @(26165,0)
GPGPU-Sim PTX: 21600000 instructions simulated : ctaid=(0,5,0) tid=(166,0,0)
GPGPU-Sim PTX: 21700000 instructions simulated : ctaid=(0,22,0) tid=(39,0,0)
GPGPU-Sim PTX: 21800000 instructions simulated : ctaid=(0,52,0) tid=(189,0,0)
GPGPU-Sim uArch: cycles simulated: 26500  inst.: 17381809 (ipc=655.9) sim_rate=413852 (inst/sec) elapsed = 0:0:00:42 / Wed Mar 11 17:04:04 2015
GPGPU-Sim PTX: 21900000 instructions simulated : ctaid=(0,13,0) tid=(41,0,0)
GPGPU-Sim PTX: 22000000 instructions simulated : ctaid=(0,18,0) tid=(222,0,0)
GPGPU-Sim PTX: 22100000 instructions simulated : ctaid=(0,18,0) tid=(196,0,0)
GPGPU-Sim uArch: Shader 13 finished CTA #0 (26952,0), 5 CTAs running
GPGPU-Sim uArch: core: 13, cta: 0 initialized @(26953,0)
GPGPU-Sim PTX: 22200000 instructions simulated : ctaid=(0,42,0) tid=(57,0,0)
GPGPU-Sim uArch: cycles simulated: 27000  inst.: 17731533 (ipc=656.7) sim_rate=412361 (inst/sec) elapsed = 0:0:00:43 / Wed Mar 11 17:04:05 2015
GPGPU-Sim uArch: Shader 7 finished CTA #0 (27013,0), 5 CTAs running
GPGPU-Sim uArch: core:  7, cta: 0 initialized @(27014,0)
GPGPU-Sim uArch: Shader 14 finished CTA #0 (27027,0), 5 CTAs running
GPGPU-Sim uArch: core: 14, cta: 0 initialized @(27028,0)
GPGPU-Sim uArch: Shader 8 finished CTA #0 (27065,0), 5 CTAs running
GPGPU-Sim uArch: core:  8, cta: 0 initialized @(27066,0)
GPGPU-Sim PTX: 22300000 instructions simulated : ctaid=(0,22,0) tid=(161,0,0)
GPGPU-Sim PTX: 22400000 instructions simulated : ctaid=(0,32,0) tid=(227,0,0)
GPGPU-Sim uArch: Shader 9 finished CTA #0 (27213,0), 5 CTAs running
GPGPU-Sim uArch: core:  9, cta: 0 initialized @(27214,0)
GPGPU-Sim uArch: Shader 11 finished CTA #0 (27243,0), 5 CTAs running
GPGPU-Sim uArch: core: 11, cta: 0 initialized @(27244,0)
GPGPU-Sim PTX: 22500000 instructions simulated : ctaid=(0,29,0) tid=(165,0,0)
GPGPU-Sim uArch: Shader 10 finished CTA #0 (27334,0), 5 CTAs running
GPGPU-Sim uArch: core: 10, cta: 0 initialized @(27335,0)
GPGPU-Sim uArch: Shader 12 finished CTA #0 (27351,0), 5 CTAs running
GPGPU-Sim uArch: core: 12, cta: 0 initialized @(27352,0)
GPGPU-Sim uArch: Shader 5 finished CTA #0 (27373,0), 5 CTAs running
GPGPU-Sim uArch: core:  5, cta: 0 initialized @(27374,0)
GPGPU-Sim PTX: 22600000 instructions simulated : ctaid=(0,70,0) tid=(46,0,0)
GPGPU-Sim uArch: Shader 0 finished CTA #0 (27418,0), 5 CTAs running
GPGPU-Sim uArch: core:  0, cta: 0 initialized @(27419,0)
GPGPU-Sim uArch: Shader 6 finished CTA #0 (27439,0), 5 CTAs running
GPGPU-Sim uArch: core:  6, cta: 0 initialized @(27440,0)
GPGPU-Sim uArch: cycles simulated: 27500  inst.: 18073458 (ipc=657.2) sim_rate=410760 (inst/sec) elapsed = 0:0:00:44 / Wed Mar 11 17:04:06 2015
GPGPU-Sim PTX: 22700000 instructions simulated : ctaid=(0,22,0) tid=(140,0,0)
GPGPU-Sim PTX: 22800000 instructions simulated : ctaid=(0,41,0) tid=(90,0,0)
GPGPU-Sim PTX: 22900000 instructions simulated : ctaid=(0,40,0) tid=(190,0,0)
GPGPU-Sim PTX: 23000000 instructions simulated : ctaid=(0,22,0) tid=(237,0,0)
GPGPU-Sim PTX: 23100000 instructions simulated : ctaid=(0,40,0) tid=(107,0,0)
GPGPU-Sim PTX: 23200000 instructions simulated : ctaid=(0,103,0) tid=(28,0,0)
GPGPU-Sim PTX: 23300000 instructions simulated : ctaid=(0,38,0) tid=(116,0,0)
GPGPU-Sim PTX: 23400000 instructions simulated : ctaid=(0,104,0) tid=(18,0,0)
GPGPU-Sim PTX: 23500000 instructions simulated : ctaid=(0,61,0) tid=(16,0,0)
GPGPU-Sim uArch: cycles simulated: 28500  inst.: 18757051 (ipc=658.1) sim_rate=416823 (inst/sec) elapsed = 0:0:00:45 / Wed Mar 11 17:04:07 2015
GPGPU-Sim PTX: 23600000 instructions simulated : ctaid=(0,15,0) tid=(205,0,0)
GPGPU-Sim PTX: 23700000 instructions simulated : ctaid=(0,16,0) tid=(60,0,0)
GPGPU-Sim PTX: 23800000 instructions simulated : ctaid=(0,26,0) tid=(33,0,0)
GPGPU-Sim PTX: 23900000 instructions simulated : ctaid=(0,37,0) tid=(222,0,0)
GPGPU-Sim uArch: cycles simulated: 29000  inst.: 19119881 (ipc=659.3) sim_rate=415649 (inst/sec) elapsed = 0:0:00:46 / Wed Mar 11 17:04:08 2015
GPGPU-Sim PTX: 24000000 instructions simulated : ctaid=(0,23,0) tid=(70,0,0)
GPGPU-Sim PTX: 24100000 instructions simulated : ctaid=(0,42,0) tid=(219,0,0)
GPGPU-Sim PTX: 24200000 instructions simulated : ctaid=(0,27,0) tid=(198,0,0)
GPGPU-Sim PTX: 24300000 instructions simulated : ctaid=(0,42,0) tid=(170,0,0)
GPGPU-Sim PTX: 24400000 instructions simulated : ctaid=(0,41,0) tid=(143,0,0)
GPGPU-Sim uArch: cycles simulated: 29500  inst.: 19468813 (ipc=660.0) sim_rate=414230 (inst/sec) elapsed = 0:0:00:47 / Wed Mar 11 17:04:09 2015
GPGPU-Sim PTX: 24500000 instructions simulated : ctaid=(0,41,0) tid=(205,0,0)
GPGPU-Sim PTX: 24600000 instructions simulated : ctaid=(0,37,0) tid=(236,0,0)
GPGPU-Sim PTX: 24700000 instructions simulated : ctaid=(0,27,0) tid=(39,0,0)
GPGPU-Sim PTX: 24800000 instructions simulated : ctaid=(0,21,0) tid=(61,0,0)
GPGPU-Sim uArch: cycles simulated: 30000  inst.: 19806969 (ipc=660.2) sim_rate=412645 (inst/sec) elapsed = 0:0:00:48 / Wed Mar 11 17:04:10 2015
GPGPU-Sim PTX: 24900000 instructions simulated : ctaid=(0,28,0) tid=(28,0,0)
GPGPU-Sim PTX: 25000000 instructions simulated : ctaid=(0,59,0) tid=(0,0,0)
GPGPU-Sim PTX: 25100000 instructions simulated : ctaid=(0,23,0) tid=(179,0,0)
GPGPU-Sim PTX: 25200000 instructions simulated : ctaid=(0,31,0) tid=(67,0,0)
GPGPU-Sim PTX: 25300000 instructions simulated : ctaid=(0,31,0) tid=(78,0,0)
GPGPU-Sim PTX: 25400000 instructions simulated : ctaid=(0,38,0) tid=(230,0,0)
GPGPU-Sim PTX: 25500000 instructions simulated : ctaid=(0,24,0) tid=(199,0,0)
GPGPU-Sim PTX: 25600000 instructions simulated : ctaid=(0,58,0) tid=(90,0,0)
GPGPU-Sim PTX: 25700000 instructions simulated : ctaid=(0,36,0) tid=(42,0,0)
GPGPU-Sim uArch: cycles simulated: 31000  inst.: 20491335 (ipc=661.0) sim_rate=418190 (inst/sec) elapsed = 0:0:00:49 / Wed Mar 11 17:04:11 2015
GPGPU-Sim PTX: 25800000 instructions simulated : ctaid=(0,24,0) tid=(209,0,0)
GPGPU-Sim PTX: 25900000 instructions simulated : ctaid=(0,27,0) tid=(236,0,0)
GPGPU-Sim PTX: 26000000 instructions simulated : ctaid=(0,38,0) tid=(58,0,0)
GPGPU-Sim PTX: 26100000 instructions simulated : ctaid=(0,41,0) tid=(164,0,0)
GPGPU-Sim uArch: cycles simulated: 31500  inst.: 20844003 (ipc=661.7) sim_rate=416880 (inst/sec) elapsed = 0:0:00:50 / Wed Mar 11 17:04:12 2015
GPGPU-Sim PTX: 26200000 instructions simulated : ctaid=(0,24,0) tid=(171,0,0)
GPGPU-Sim PTX: 26300000 instructions simulated : ctaid=(0,20,0) tid=(2,0,0)
GPGPU-Sim PTX: 26400000 instructions simulated : ctaid=(0,44,0) tid=(142,0,0)
GPGPU-Sim PTX: 26500000 instructions simulated : ctaid=(0,16,0) tid=(181,0,0)
GPGPU-Sim uArch: cycles simulated: 32000  inst.: 21196920 (ipc=662.4) sim_rate=415625 (inst/sec) elapsed = 0:0:00:51 / Wed Mar 11 17:04:13 2015
GPGPU-Sim PTX: 26600000 instructions simulated : ctaid=(0,40,0) tid=(37,0,0)
GPGPU-Sim PTX: 26700000 instructions simulated : ctaid=(0,21,0) tid=(41,0,0)
GPGPU-Sim PTX: 26800000 instructions simulated : ctaid=(0,48,0) tid=(85,0,0)
GPGPU-Sim PTX: 26900000 instructions simulated : ctaid=(0,46,0) tid=(93,0,0)
GPGPU-Sim PTX: 27000000 instructions simulated : ctaid=(0,40,0) tid=(39,0,0)
GPGPU-Sim uArch: cycles simulated: 32500  inst.: 21531964 (ipc=662.5) sim_rate=414076 (inst/sec) elapsed = 0:0:00:52 / Wed Mar 11 17:04:14 2015
GPGPU-Sim PTX: 27100000 instructions simulated : ctaid=(0,17,0) tid=(227,0,0)
GPGPU-Sim PTX: 27200000 instructions simulated : ctaid=(0,21,0) tid=(141,0,0)
GPGPU-Sim PTX: 27300000 instructions simulated : ctaid=(0,26,0) tid=(100,0,0)
GPGPU-Sim PTX: 27400000 instructions simulated : ctaid=(0,28,0) tid=(49,0,0)
GPGPU-Sim uArch: cycles simulated: 33000  inst.: 21866603 (ipc=662.6) sim_rate=412577 (inst/sec) elapsed = 0:0:00:53 / Wed Mar 11 17:04:15 2015
GPGPU-Sim PTX: 27500000 instructions simulated : ctaid=(0,16,0) tid=(180,0,0)
GPGPU-Sim PTX: 27600000 instructions simulated : ctaid=(0,52,0) tid=(59,0,0)
GPGPU-Sim PTX: 27700000 instructions simulated : ctaid=(0,42,0) tid=(106,0,0)
GPGPU-Sim PTX: 27800000 instructions simulated : ctaid=(0,32,0) tid=(201,0,0)
GPGPU-Sim PTX: 27900000 instructions simulated : ctaid=(0,25,0) tid=(146,0,0)
GPGPU-Sim uArch: cycles simulated: 33500  inst.: 22198699 (ipc=662.6) sim_rate=411087 (inst/sec) elapsed = 0:0:00:54 / Wed Mar 11 17:04:16 2015
GPGPU-Sim PTX: 28000000 instructions simulated : ctaid=(0,27,0) tid=(247,0,0)
GPGPU-Sim PTX: 28100000 instructions simulated : ctaid=(0,40,0) tid=(21,0,0)
GPGPU-Sim uArch: Shader 3 finished CTA #1 (33761,0), 5 CTAs running
GPGPU-Sim uArch: core:  3, cta: 1 initialized @(33762,0)
GPGPU-Sim PTX: 28200000 instructions simulated : ctaid=(0,48,0) tid=(163,0,0)
GPGPU-Sim PTX: 28300000 instructions simulated : ctaid=(0,53,0) tid=(63,0,0)
GPGPU-Sim PTX: 28400000 instructions simulated : ctaid=(0,55,0) tid=(36,0,0)
GPGPU-Sim PTX: 28500000 instructions simulated : ctaid=(0,34,0) tid=(238,0,0)
GPGPU-Sim uArch: Shader 2 finished CTA #1 (34219,0), 5 CTAs running
GPGPU-Sim uArch: core:  2, cta: 1 initialized @(34220,0)
GPGPU-Sim PTX: 28600000 instructions simulated : ctaid=(0,34,0) tid=(242,0,0)
GPGPU-Sim uArch: Shader 11 finished CTA #1 (34376,0), 5 CTAs running
GPGPU-Sim uArch: core: 11, cta: 1 initialized @(34377,0)
GPGPU-Sim uArch: Shader 4 finished CTA #1 (34424,0), 5 CTAs running
GPGPU-Sim uArch: core:  4, cta: 1 initialized @(34425,0)
GPGPU-Sim PTX: 28700000 instructions simulated : ctaid=(0,57,0) tid=(97,0,0)
GPGPU-Sim uArch: cycles simulated: 34500  inst.: 22858454 (ipc=662.6) sim_rate=415608 (inst/sec) elapsed = 0:0:00:55 / Wed Mar 11 17:04:17 2015
GPGPU-Sim uArch: Shader 9 finished CTA #1 (34538,0), 5 CTAs running
GPGPU-Sim uArch: core:  9, cta: 1 initialized @(34539,0)
GPGPU-Sim uArch: Shader 10 finished CTA #1 (34548,0), 5 CTAs running
GPGPU-Sim uArch: core: 10, cta: 1 initialized @(34549,0)
GPGPU-Sim uArch: Shader 8 finished CTA #1 (34550,0), 5 CTAs running
GPGPU-Sim uArch: core:  8, cta: 1 initialized @(34551,0)
GPGPU-Sim PTX: 28800000 instructions simulated : ctaid=(0,69,0) tid=(186,0,0)
GPGPU-Sim uArch: Shader 13 finished CTA #1 (34606,0), 5 CTAs running
GPGPU-Sim uArch: core: 13, cta: 1 initialized @(34607,0)
GPGPU-Sim uArch: Shader 14 finished CTA #1 (34628,0), 5 CTAs running
GPGPU-Sim uArch: core: 14, cta: 1 initialized @(34629,0)
GPGPU-Sim uArch: Shader 5 finished CTA #1 (34634,0), 5 CTAs running
GPGPU-Sim uArch: core:  5, cta: 1 initialized @(34635,0)
GPGPU-Sim PTX: 28900000 instructions simulated : ctaid=(0,31,0) tid=(204,0,0)
GPGPU-Sim uArch: Shader 6 finished CTA #1 (34685,0), 5 CTAs running
GPGPU-Sim uArch: core:  6, cta: 1 initialized @(34686,0)
GPGPU-Sim uArch: Shader 12 finished CTA #1 (34759,0), 5 CTAs running
GPGPU-Sim uArch: core: 12, cta: 1 initialized @(34760,0)
GPGPU-Sim uArch: Shader 7 finished CTA #1 (34790,0), 5 CTAs running
GPGPU-Sim uArch: core:  7, cta: 1 initialized @(34791,0)
GPGPU-Sim PTX: 29000000 instructions simulated : ctaid=(0,35,0) tid=(24,0,0)
GPGPU-Sim uArch: Shader 0 finished CTA #1 (34827,0), 5 CTAs running
GPGPU-Sim uArch: core:  0, cta: 1 initialized @(34828,0)
GPGPU-Sim uArch: Shader 1 finished CTA #1 (34841,0), 5 CTAs running
GPGPU-Sim uArch: core:  1, cta: 1 initialized @(34842,0)
GPGPU-Sim PTX: 29100000 instructions simulated : ctaid=(0,46,0) tid=(205,0,0)
GPGPU-Sim uArch: cycles simulated: 35000  inst.: 23207517 (ipc=663.1) sim_rate=414419 (inst/sec) elapsed = 0:0:00:56 / Wed Mar 11 17:04:18 2015
GPGPU-Sim PTX: 29200000 instructions simulated : ctaid=(0,35,0) tid=(118,0,0)
GPGPU-Sim PTX: 29300000 instructions simulated : ctaid=(0,31,0) tid=(101,0,0)
GPGPU-Sim PTX: 29400000 instructions simulated : ctaid=(0,38,0) tid=(69,0,0)
GPGPU-Sim PTX: 29500000 instructions simulated : ctaid=(0,35,0) tid=(226,0,0)
GPGPU-Sim PTX: 29600000 instructions simulated : ctaid=(0,51,0) tid=(144,0,0)
GPGPU-Sim uArch: cycles simulated: 35500  inst.: 23560387 (ipc=663.7) sim_rate=413340 (inst/sec) elapsed = 0:0:00:57 / Wed Mar 11 17:04:19 2015
GPGPU-Sim PTX: 29700000 instructions simulated : ctaid=(0,45,0) tid=(69,0,0)
GPGPU-Sim PTX: 29800000 instructions simulated : ctaid=(0,56,0) tid=(113,0,0)
GPGPU-Sim PTX: 29900000 instructions simulated : ctaid=(0,38,0) tid=(15,0,0)
GPGPU-Sim PTX: 30000000 instructions simulated : ctaid=(0,74,0) tid=(105,0,0)
GPGPU-Sim uArch: cycles simulated: 36000  inst.: 23891549 (ipc=663.7) sim_rate=411923 (inst/sec) elapsed = 0:0:00:58 / Wed Mar 11 17:04:20 2015
GPGPU-Sim PTX: 30100000 instructions simulated : ctaid=(0,58,0) tid=(201,0,0)
GPGPU-Sim PTX: 30200000 instructions simulated : ctaid=(0,36,0) tid=(108,0,0)
GPGPU-Sim PTX: 30300000 instructions simulated : ctaid=(0,33,0) tid=(103,0,0)
GPGPU-Sim PTX: 30400000 instructions simulated : ctaid=(0,61,0) tid=(170,0,0)
GPGPU-Sim uArch: cycles simulated: 36500  inst.: 24204738 (ipc=663.1) sim_rate=410249 (inst/sec) elapsed = 0:0:00:59 / Wed Mar 11 17:04:21 2015
GPGPU-Sim PTX: 30500000 instructions simulated : ctaid=(0,30,0) tid=(4,0,0)
GPGPU-Sim PTX: 30600000 instructions simulated : ctaid=(0,35,0) tid=(20,0,0)
GPGPU-Sim PTX: 30700000 instructions simulated : ctaid=(0,45,0) tid=(89,0,0)
GPGPU-Sim PTX: 30800000 instructions simulated : ctaid=(0,40,0) tid=(227,0,0)
GPGPU-Sim PTX: 30900000 instructions simulated : ctaid=(0,51,0) tid=(191,0,0)
GPGPU-Sim PTX: 31000000 instructions simulated : ctaid=(0,56,0) tid=(215,0,0)
GPGPU-Sim PTX: 31100000 instructions simulated : ctaid=(0,45,0) tid=(12,0,0)
GPGPU-Sim PTX: 31200000 instructions simulated : ctaid=(0,46,0) tid=(55,0,0)
GPGPU-Sim uArch: cycles simulated: 37500  inst.: 24871362 (ipc=663.2) sim_rate=414522 (inst/sec) elapsed = 0:0:01:00 / Wed Mar 11 17:04:22 2015
GPGPU-Sim PTX: 31300000 instructions simulated : ctaid=(0,49,0) tid=(167,0,0)
GPGPU-Sim PTX: 31400000 instructions simulated : ctaid=(0,41,0) tid=(219,0,0)
GPGPU-Sim PTX: 31500000 instructions simulated : ctaid=(0,55,0) tid=(113,0,0)
GPGPU-Sim PTX: 31600000 instructions simulated : ctaid=(0,48,0) tid=(43,0,0)
GPGPU-Sim uArch: cycles simulated: 38000  inst.: 25209559 (ipc=663.4) sim_rate=413271 (inst/sec) elapsed = 0:0:01:01 / Wed Mar 11 17:04:23 2015
GPGPU-Sim PTX: 31700000 instructions simulated : ctaid=(0,40,0) tid=(17,0,0)
GPGPU-Sim PTX: 31800000 instructions simulated : ctaid=(0,33,0) tid=(219,0,0)
GPGPU-Sim PTX: 31900000 instructions simulated : ctaid=(0,37,0) tid=(16,0,0)
GPGPU-Sim PTX: 32000000 instructions simulated : ctaid=(0,40,0) tid=(31,0,0)
GPGPU-Sim PTX: 32100000 instructions simulated : ctaid=(0,33,0) tid=(66,0,0)
GPGPU-Sim uArch: cycles simulated: 38500  inst.: 25545136 (ipc=663.5) sim_rate=412018 (inst/sec) elapsed = 0:0:01:02 / Wed Mar 11 17:04:24 2015
GPGPU-Sim PTX: 32200000 instructions simulated : ctaid=(0,38,0) tid=(133,0,0)
GPGPU-Sim PTX: 32300000 instructions simulated : ctaid=(0,33,0) tid=(125,0,0)
GPGPU-Sim PTX: 32400000 instructions simulated : ctaid=(0,59,0) tid=(134,0,0)
GPGPU-Sim PTX: 32500000 instructions simulated : ctaid=(0,39,0) tid=(132,0,0)
GPGPU-Sim uArch: cycles simulated: 39000  inst.: 25880469 (ipc=663.6) sim_rate=410801 (inst/sec) elapsed = 0:0:01:03 / Wed Mar 11 17:04:25 2015
GPGPU-Sim PTX: 32600000 instructions simulated : ctaid=(0,46,0) tid=(105,0,0)
GPGPU-Sim PTX: 32700000 instructions simulated : ctaid=(0,34,0) tid=(42,0,0)
GPGPU-Sim PTX: 32800000 instructions simulated : ctaid=(0,30,0) tid=(146,0,0)
GPGPU-Sim PTX: 32900000 instructions simulated : ctaid=(0,34,0) tid=(194,0,0)
GPGPU-Sim PTX: 33000000 instructions simulated : ctaid=(0,58,0) tid=(151,0,0)
GPGPU-Sim PTX: 33100000 instructions simulated : ctaid=(0,50,0) tid=(174,0,0)
GPGPU-Sim PTX: 33200000 instructions simulated : ctaid=(0,36,0) tid=(167,0,0)
GPGPU-Sim PTX: 33300000 instructions simulated : ctaid=(0,31,0) tid=(70,0,0)
GPGPU-Sim PTX: 33400000 instructions simulated : ctaid=(0,36,0) tid=(108,0,0)
GPGPU-Sim uArch: cycles simulated: 40000  inst.: 26537245 (ipc=663.4) sim_rate=414644 (inst/sec) elapsed = 0:0:01:04 / Wed Mar 11 17:04:26 2015
GPGPU-Sim PTX: 33500000 instructions simulated : ctaid=(0,59,0) tid=(246,0,0)
GPGPU-Sim PTX: 33600000 instructions simulated : ctaid=(0,42,0) tid=(243,0,0)
GPGPU-Sim PTX: 33700000 instructions simulated : ctaid=(0,67,0) tid=(123,0,0)
GPGPU-Sim PTX: 33800000 instructions simulated : ctaid=(0,33,0) tid=(161,0,0)
GPGPU-Sim uArch: cycles simulated: 40500  inst.: 26869061 (ipc=663.4) sim_rate=413370 (inst/sec) elapsed = 0:0:01:05 / Wed Mar 11 17:04:27 2015
GPGPU-Sim PTX: 33900000 instructions simulated : ctaid=(0,33,0) tid=(11,0,0)
GPGPU-Sim PTX: 34000000 instructions simulated : ctaid=(0,32,0) tid=(1,0,0)
GPGPU-Sim PTX: 34100000 instructions simulated : ctaid=(0,36,0) tid=(168,0,0)
GPGPU-Sim PTX: 34200000 instructions simulated : ctaid=(0,56,0) tid=(242,0,0)
GPGPU-Sim uArch: cycles simulated: 41000  inst.: 27220274 (ipc=663.9) sim_rate=412428 (inst/sec) elapsed = 0:0:01:06 / Wed Mar 11 17:04:28 2015
GPGPU-Sim PTX: 34300000 instructions simulated : ctaid=(0,51,0) tid=(207,0,0)
GPGPU-Sim PTX: 34400000 instructions simulated : ctaid=(0,40,0) tid=(13,0,0)
GPGPU-Sim PTX: 34500000 instructions simulated : ctaid=(0,37,0) tid=(87,0,0)
GPGPU-Sim PTX: 34600000 instructions simulated : ctaid=(0,55,0) tid=(50,0,0)
GPGPU-Sim uArch: cycles simulated: 41500  inst.: 27572751 (ipc=664.4) sim_rate=411533 (inst/sec) elapsed = 0:0:01:07 / Wed Mar 11 17:04:29 2015
GPGPU-Sim PTX: 34700000 instructions simulated : ctaid=(0,37,0) tid=(46,0,0)
GPGPU-Sim PTX: 34800000 instructions simulated : ctaid=(0,34,0) tid=(78,0,0)
GPGPU-Sim PTX: 34900000 instructions simulated : ctaid=(0,55,0) tid=(156,0,0)
GPGPU-Sim PTX: 35000000 instructions simulated : ctaid=(0,32,0) tid=(160,0,0)
GPGPU-Sim uArch: Shader 1 finished CTA #2 (41922,0), 5 CTAs running
GPGPU-Sim uArch: core:  1, cta: 2 initialized @(41923,0)
GPGPU-Sim PTX: 35100000 instructions simulated : ctaid=(0,43,0) tid=(181,0,0)
GPGPU-Sim uArch: cycles simulated: 42000  inst.: 27910376 (ipc=664.5) sim_rate=410446 (inst/sec) elapsed = 0:0:01:08 / Wed Mar 11 17:04:30 2015
GPGPU-Sim PTX: 35200000 instructions simulated : ctaid=(0,35,0) tid=(38,0,0)
GPGPU-Sim PTX: 35300000 instructions simulated : ctaid=(0,52,0) tid=(228,0,0)
GPGPU-Sim uArch: Shader 2 finished CTA #2 (42296,0), 5 CTAs running
GPGPU-Sim uArch: core:  2, cta: 2 initialized @(42297,0)
GPGPU-Sim PTX: 35400000 instructions simulated : ctaid=(0,36,0) tid=(224,0,0)
GPGPU-Sim PTX: 35500000 instructions simulated : ctaid=(0,38,0) tid=(120,0,0)
GPGPU-Sim PTX: 35600000 instructions simulated : ctaid=(0,39,0) tid=(230,0,0)
GPGPU-Sim PTX: 35700000 instructions simulated : ctaid=(0,65,0) tid=(158,0,0)
GPGPU-Sim PTX: 35800000 instructions simulated : ctaid=(0,73,0) tid=(37,0,0)
GPGPU-Sim PTX: 35900000 instructions simulated : ctaid=(0,49,0) tid=(208,0,0)
GPGPU-Sim uArch: cycles simulated: 43000  inst.: 28597546 (ipc=665.1) sim_rate=414457 (inst/sec) elapsed = 0:0:01:09 / Wed Mar 11 17:04:31 2015
GPGPU-Sim PTX: 36000000 instructions simulated : ctaid=(0,41,0) tid=(169,0,0)
GPGPU-Sim PTX: 36100000 instructions simulated : ctaid=(0,40,0) tid=(234,0,0)
GPGPU-Sim PTX: 36200000 instructions simulated : ctaid=(0,60,0) tid=(101,0,0)
GPGPU-Sim PTX: 36300000 instructions simulated : ctaid=(0,58,0) tid=(95,0,0)
GPGPU-Sim PTX: 36400000 instructions simulated : ctaid=(0,41,0) tid=(210,0,0)
GPGPU-Sim uArch: cycles simulated: 43500  inst.: 28951774 (ipc=665.6) sim_rate=413596 (inst/sec) elapsed = 0:0:01:10 / Wed Mar 11 17:04:32 2015
GPGPU-Sim PTX: 36500000 instructions simulated : ctaid=(0,34,0) tid=(122,0,0)
GPGPU-Sim PTX: 36600000 instructions simulated : ctaid=(0,63,0) tid=(147,0,0)
GPGPU-Sim uArch: Shader 3 finished CTA #2 (43756,0), 5 CTAs running
GPGPU-Sim uArch: core:  3, cta: 2 initialized @(43757,0)
GPGPU-Sim PTX: 36700000 instructions simulated : ctaid=(0,51,0) tid=(201,0,0)
GPGPU-Sim PTX: 36800000 instructions simulated : ctaid=(0,122,0) tid=(0,0,0)
GPGPU-Sim uArch: cycles simulated: 44000  inst.: 29287120 (ipc=665.6) sim_rate=412494 (inst/sec) elapsed = 0:0:01:11 / Wed Mar 11 17:04:33 2015
GPGPU-Sim PTX: 36900000 instructions simulated : ctaid=(0,62,0) tid=(185,0,0)
GPGPU-Sim PTX: 37000000 instructions simulated : ctaid=(0,37,0) tid=(8,0,0)
GPGPU-Sim PTX: 37100000 instructions simulated : ctaid=(0,59,0) tid=(185,0,0)
GPGPU-Sim PTX: 37200000 instructions simulated : ctaid=(0,39,0) tid=(110,0,0)
GPGPU-Sim PTX: 37300000 instructions simulated : ctaid=(0,43,0) tid=(101,0,0)
GPGPU-Sim PTX: 37400000 instructions simulated : ctaid=(0,46,0) tid=(8,0,0)
GPGPU-Sim PTX: 37500000 instructions simulated : ctaid=(0,72,0) tid=(203,0,0)
GPGPU-Sim PTX: 37600000 instructions simulated : ctaid=(0,44,0) tid=(15,0,0)
GPGPU-Sim PTX: 37700000 instructions simulated : ctaid=(0,73,0) tid=(34,0,0)
GPGPU-Sim uArch: cycles simulated: 45000  inst.: 29956864 (ipc=665.7) sim_rate=416067 (inst/sec) elapsed = 0:0:01:12 / Wed Mar 11 17:04:34 2015
GPGPU-Sim PTX: 37800000 instructions simulated : ctaid=(0,54,0) tid=(19,0,0)
GPGPU-Sim PTX: 37900000 instructions simulated : ctaid=(0,58,0) tid=(52,0,0)
GPGPU-Sim PTX: 38000000 instructions simulated : ctaid=(0,56,0) tid=(111,0,0)
GPGPU-Sim PTX: 38100000 instructions simulated : ctaid=(0,51,0) tid=(203,0,0)
GPGPU-Sim uArch: Shader 4 finished CTA #2 (45450,0), 5 CTAs running
GPGPU-Sim uArch: core:  4, cta: 2 initialized @(45451,0)
GPGPU-Sim uArch: cycles simulated: 45500  inst.: 30302486 (ipc=666.0) sim_rate=415102 (inst/sec) elapsed = 0:0:01:13 / Wed Mar 11 17:04:35 2015
GPGPU-Sim PTX: 38200000 instructions simulated : ctaid=(0,92,0) tid=(172,0,0)
GPGPU-Sim uArch: Shader 12 finished CTA #2 (45607,0), 5 CTAs running
GPGPU-Sim uArch: core: 12, cta: 2 initialized @(45608,0)
GPGPU-Sim uArch: Shader 6 finished CTA #2 (45644,0), 5 CTAs running
GPGPU-Sim uArch: core:  6, cta: 2 initialized @(45645,0)
GPGPU-Sim PTX: 38300000 instructions simulated : ctaid=(0,46,0) tid=(159,0,0)
GPGPU-Sim PTX: 38400000 instructions simulated : ctaid=(0,59,0) tid=(189,0,0)
GPGPU-Sim uArch: Shader 7 finished CTA #2 (45855,0), 5 CTAs running
GPGPU-Sim uArch: core:  7, cta: 2 initialized @(45856,0)
GPGPU-Sim PTX: 38500000 instructions simulated : ctaid=(0,123,0) tid=(90,0,0)
GPGPU-Sim uArch: Shader 13 finished CTA #2 (45937,0), 5 CTAs running
GPGPU-Sim uArch: core: 13, cta: 2 initialized @(45938,0)
GPGPU-Sim uArch: Shader 8 finished CTA #2 (45976,0), 5 CTAs running
GPGPU-Sim uArch: Shader 0 finished CTA #2 (45988,0), 5 CTAs running
GPGPU-Sim uArch: cycles simulated: 46000  inst.: 30647602 (ipc=666.3) sim_rate=414156 (inst/sec) elapsed = 0:0:01:14 / Wed Mar 11 17:04:36 2015
GPGPU-Sim PTX: 38600000 instructions simulated : ctaid=(0,123,0) tid=(205,0,0)
GPGPU-Sim uArch: Shader 9 finished CTA #2 (46113,0), 5 CTAs running
GPGPU-Sim PTX: 38700000 instructions simulated : ctaid=(0,46,0) tid=(15,0,0)
GPGPU-Sim uArch: Shader 10 finished CTA #2 (46148,0), 5 CTAs running
GPGPU-Sim PTX: 38800000 instructions simulated : ctaid=(0,58,0) tid=(117,0,0)
GPGPU-Sim uArch: Shader 5 finished CTA #2 (46272,0), 5 CTAs running
GPGPU-Sim uArch: Shader 14 finished CTA #2 (46335,0), 5 CTAs running
GPGPU-Sim PTX: 38900000 instructions simulated : ctaid=(0,52,0) tid=(27,0,0)
GPGPU-Sim uArch: Shader 11 finished CTA #2 (46378,0), 5 CTAs running
GPGPU-Sim PTX: 39000000 instructions simulated : ctaid=(0,64,0) tid=(243,0,0)
GPGPU-Sim uArch: cycles simulated: 46500  inst.: 30976556 (ipc=666.2) sim_rate=413020 (inst/sec) elapsed = 0:0:01:15 / Wed Mar 11 17:04:37 2015
GPGPU-Sim PTX: 39100000 instructions simulated : ctaid=(0,83,0) tid=(55,0,0)
GPGPU-Sim PTX: 39200000 instructions simulated : ctaid=(0,47,0) tid=(255,0,0)
GPGPU-Sim PTX: 39300000 instructions simulated : ctaid=(0,49,0) tid=(106,0,0)
GPGPU-Sim PTX: 39400000 instructions simulated : ctaid=(0,45,0) tid=(214,0,0)
GPGPU-Sim PTX: 39500000 instructions simulated : ctaid=(0,46,0) tid=(144,0,0)
GPGPU-Sim PTX: 39600000 instructions simulated : ctaid=(0,52,0) tid=(152,0,0)
GPGPU-Sim PTX: 39700000 instructions simulated : ctaid=(0,47,0) tid=(235,0,0)
GPGPU-Sim PTX: 39800000 instructions simulated : ctaid=(0,58,0) tid=(89,0,0)
GPGPU-Sim uArch: cycles simulated: 47500  inst.: 31593436 (ipc=665.1) sim_rate=415703 (inst/sec) elapsed = 0:0:01:16 / Wed Mar 11 17:04:38 2015
GPGPU-Sim PTX: 39900000 instructions simulated : ctaid=(0,58,0) tid=(187,0,0)
GPGPU-Sim PTX: 40000000 instructions simulated : ctaid=(0,88,0) tid=(161,0,0)
GPGPU-Sim PTX: 40100000 instructions simulated : ctaid=(0,58,0) tid=(46,0,0)
GPGPU-Sim uArch: cycles simulated: 48000  inst.: 31909765 (ipc=664.8) sim_rate=414412 (inst/sec) elapsed = 0:0:01:17 / Wed Mar 11 17:04:39 2015
GPGPU-Sim PTX: 40200000 instructions simulated : ctaid=(0,54,0) tid=(252,0,0)
GPGPU-Sim PTX: 40300000 instructions simulated : ctaid=(0,62,0) tid=(73,0,0)
GPGPU-Sim PTX: 40400000 instructions simulated : ctaid=(0,54,0) tid=(58,0,0)
GPGPU-Sim PTX: 40500000 instructions simulated : ctaid=(0,45,0) tid=(255,0,0)
GPGPU-Sim PTX: 40600000 instructions simulated : ctaid=(0,77,0) tid=(131,0,0)
GPGPU-Sim PTX: 40700000 instructions simulated : ctaid=(0,70,0) tid=(3,0,0)
GPGPU-Sim PTX: 40800000 instructions simulated : ctaid=(0,70,0) tid=(49,0,0)
GPGPU-Sim PTX: 40900000 instructions simulated : ctaid=(0,47,0) tid=(109,0,0)
GPGPU-Sim PTX: 41000000 instructions simulated : ctaid=(0,66,0) tid=(43,0,0)
GPGPU-Sim uArch: cycles simulated: 49000  inst.: 32591928 (ipc=665.1) sim_rate=417845 (inst/sec) elapsed = 0:0:01:18 / Wed Mar 11 17:04:40 2015
GPGPU-Sim PTX: 41100000 instructions simulated : ctaid=(0,74,0) tid=(46,0,0)
GPGPU-Sim PTX: 41200000 instructions simulated : ctaid=(0,58,0) tid=(230,0,0)
GPGPU-Sim PTX: 41300000 instructions simulated : ctaid=(0,61,0) tid=(223,0,0)
GPGPU-Sim PTX: 41400000 instructions simulated : ctaid=(0,56,0) tid=(123,0,0)
GPGPU-Sim uArch: cycles simulated: 49500  inst.: 32926261 (ipc=665.2) sim_rate=416788 (inst/sec) elapsed = 0:0:01:19 / Wed Mar 11 17:04:41 2015
GPGPU-Sim PTX: 41500000 instructions simulated : ctaid=(0,63,0) tid=(121,0,0)
GPGPU-Sim PTX: 41600000 instructions simulated : ctaid=(0,53,0) tid=(59,0,0)
GPGPU-Sim PTX: 41700000 instructions simulated : ctaid=(0,56,0) tid=(170,0,0)
GPGPU-Sim PTX: 41800000 instructions simulated : ctaid=(0,69,0) tid=(182,0,0)
GPGPU-Sim PTX: 41900000 instructions simulated : ctaid=(0,68,0) tid=(176,0,0)
GPGPU-Sim PTX: 42000000 instructions simulated : ctaid=(0,73,0) tid=(149,0,0)
GPGPU-Sim PTX: 42100000 instructions simulated : ctaid=(0,52,0) tid=(91,0,0)
GPGPU-Sim PTX: 42200000 instructions simulated : ctaid=(0,71,0) tid=(172,0,0)
GPGPU-Sim PTX: 42300000 instructions simulated : ctaid=(0,48,0) tid=(10,0,0)
GPGPU-Sim uArch: cycles simulated: 50500  inst.: 33589947 (ipc=665.1) sim_rate=419874 (inst/sec) elapsed = 0:0:01:20 / Wed Mar 11 17:04:42 2015
GPGPU-Sim PTX: 42400000 instructions simulated : ctaid=(0,52,0) tid=(129,0,0)
GPGPU-Sim PTX: 42500000 instructions simulated : ctaid=(0,103,0) tid=(251,0,0)
GPGPU-Sim PTX: 42600000 instructions simulated : ctaid=(0,49,0) tid=(136,0,0)
GPGPU-Sim PTX: 42700000 instructions simulated : ctaid=(0,51,0) tid=(155,0,0)
GPGPU-Sim uArch: cycles simulated: 51000  inst.: 33925246 (ipc=665.2) sim_rate=418830 (inst/sec) elapsed = 0:0:01:21 / Wed Mar 11 17:04:43 2015
GPGPU-Sim PTX: 42800000 instructions simulated : ctaid=(0,55,0) tid=(255,0,0)
GPGPU-Sim PTX: 42900000 instructions simulated : ctaid=(0,46,0) tid=(177,0,0)
GPGPU-Sim PTX: 43000000 instructions simulated : ctaid=(0,51,0) tid=(93,0,0)
GPGPU-Sim PTX: 43100000 instructions simulated : ctaid=(0,59,0) tid=(205,0,0)
GPGPU-Sim uArch: cycles simulated: 51500  inst.: 34260804 (ipc=665.3) sim_rate=417814 (inst/sec) elapsed = 0:0:01:22 / Wed Mar 11 17:04:44 2015
GPGPU-Sim uArch: Shader 1 finished CTA #3 (51507,0), 5 CTAs running
GPGPU-Sim PTX: 43200000 instructions simulated : ctaid=(0,64,0) tid=(194,0,0)
GPGPU-Sim PTX: 43300000 instructions simulated : ctaid=(0,53,0) tid=(53,0,0)
GPGPU-Sim PTX: 43400000 instructions simulated : ctaid=(0,47,0) tid=(213,0,0)
GPGPU-Sim PTX: 43500000 instructions simulated : ctaid=(0,56,0) tid=(250,0,0)
GPGPU-Sim PTX: 43600000 instructions simulated : ctaid=(0,61,0) tid=(11,0,0)
GPGPU-Sim PTX: 43700000 instructions simulated : ctaid=(0,71,0) tid=(47,0,0)
GPGPU-Sim PTX: 43800000 instructions simulated : ctaid=(0,69,0) tid=(72,0,0)
GPGPU-Sim PTX: 43900000 instructions simulated : ctaid=(0,67,0) tid=(3,0,0)
GPGPU-Sim PTX: 44000000 instructions simulated : ctaid=(0,63,0) tid=(47,0,0)
GPGPU-Sim uArch: cycles simulated: 52500  inst.: 34971201 (ipc=666.1) sim_rate=421339 (inst/sec) elapsed = 0:0:01:23 / Wed Mar 11 17:04:45 2015
GPGPU-Sim PTX: 44100000 instructions simulated : ctaid=(0,62,0) tid=(46,0,0)
GPGPU-Sim uArch: Shader 2 finished CTA #3 (52664,0), 5 CTAs running
[...]
gpgpu_stall_shd_mem[l_mem_ld][wb_rsrv_fail] = 0
gpu_reg_bank_conflict_stalls = 0
Warp Occupancy Distribution:
Stall:150984	W0_Idle:31495	W0_Scoreboard:295521	W1:0	W2:0	W3:0	W4:0	W5:0	W6:0	W7:0	W8:0	W9:0	W10:0	W11:0	W12:0	W13:0	W14:0	W15:0	W16:0	W17:0	W18:0	W19:0	W20:0	W21:0	W22:0	W23:0	W24:0	W25:14140	W26:14140	W27:14140	W28:14140	W29:14140	W30:14140	W31:14140	W32:2526588
traffic_breakdown_coretomem[CONST_ACC_R] = 120 {8:15,}
traffic_breakdown_coretomem[GLOBAL_ACC_R] = 77968 {8:9746,}
traffic_breakdown_coretomem[GLOBAL_ACC_W] = 278528 {136:2048,}
traffic_breakdown_coretomem[INST_ACC_R] = 1080 {8:135,}
traffic_breakdown_memtocore[CONST_ACC_R] = 1080 {72:15,}
traffic_breakdown_memtocore[GLOBAL_ACC_R] = 1325456 {136:9746,}
traffic_breakdown_memtocore[GLOBAL_ACC_W] = 16384 {8:2048,}
traffic_breakdown_memtocore[INST_ACC_R] = 18360 {136:135,}
maxmrqlatency = 182 
maxdqlatency = 0 
maxmflatency = 640 
averagemflatency = 207 
max_icnt2mem_latency = 251 
max_icnt2sh_latency = 109896 
mrq_lat_table:2412 	868 	368 	707 	834 	590 	284 	93 	0 	0 	0 	0 	0 	0 	0 	0 	0 	0 	0 	0 	0 	0 	0 	0 	0 	0 	0 	0 	0 	0 	0 	0 	
dq_lat_table:0 	0 	0 	0 	0 	0 	0 	0 	0 	0 	0 	0 	0 	0 	0 	0 	0 	0 	0 	0 	0 	0 	0 	0 	0 	0 	0 	0 	0 	0 	0 	0 	
mf_lat_table:0 	0 	0 	0 	0 	0 	0 	7897 	3790 	122 	0 	0 	0 	0 	0 	0 	0 	0 	0 	0 	0 	0 	0 	0 	0 	0 	0 	0 	0 	0 	0 	0 	
icnt2mem_lat_table:0 	0 	0 	9691 	1489 	685 	44 	35 	0 	0 	0 	0 	0 	0 	0 	0 	0 	0 	0 	0 	0 	0 	0 	0 	
icnt2sh_lat_table:0 	0 	0 	5090 	3364 	1296 	11 	0 	0 	0 	0 	0 	0 	0 	240 	768 	1040 	0 	0 	0 	0 	0 	0 	0 	
mf_lat_pw_table:0 	0 	0 	0 	0 	0 	0 	177 	17 	0 	0 	0 	0 	0 	0 	0 	0 	0 	0 	0 	0 	0 	0 	0 	0 	0 	0 	0 	0 	0 	0 	0 	
maximum concurrent accesses to same row:
dram[0]:         1         0         0         0        10        10        32        32        32        32        32        32         0         0         0         0 
dram[1]:         2         0         0         0        10        10        32        32        32        32        32        32         0         0         0         0 
dram[2]:         2         0         0         0        10        12        32        32        32        32        32        32         0         0         0         0 
dram[3]:         2         0         0         0        10        12        32        32        32        32        32        32         0         0         0         0 
dram[4]:         1         0         0         0        10        12        32        32        32        32        32        32         0         0         0         0 
dram[5]:         0         0         0         0        10        12        32        32        32        32        32        32         0         0         0         0 
maximum service time to same row:
dram[0]:       422     22491     34250     34413     52100     53444     64957     64860     86785     86776     91465    100338      2422      2294     28572     29457 
dram[1]:     21051     22497     34291     34419     53399     53465     65219     64875     86828     86847    100213    100363      2268      2293     28791     29684 
dram[2]:     19725     22515     34297     34425     53399     53483     65229     64880     86832     86822    100299    100307      2269      2397     28963     34354 
dram[3]:     18556     22904     34316     34225     53417     53619     65237     64934     86822     86735    100320    102932      2274      2297     29199     34375 
dram[4]:     22094     22910     34322     34232     53403     53622     65197     64934     86845     86723    100222    102935      2436      2297     29088     34400 
dram[5]:     22503     22922     34400     34256     53442     53635     64861     64944     86764     86700    100332    102964      2321      2299     29222     34509 
average row accesses per activate:
dram[0]: 16.250000 64.000000 64.000000 64.000000 37.000000 37.000000 48.000000 48.000000 48.000000 48.000000 28.000000 26.000000 32.000000 32.000000 32.000000 32.000000 
dram[1]: 33.000000 64.000000 64.000000 64.000000 37.000000 37.000000 48.000000 48.000000 48.000000 48.000000 28.000000 26.000000 32.000000 32.000000 32.000000 32.000000 
dram[2]: 33.000000 64.000000 64.000000 64.000000 37.000000 38.000000 48.000000 48.000000 48.000000 48.000000 28.000000 26.000000 32.000000 32.000000 32.000000 32.000000 
dram[3]: 33.000000 64.000000 64.000000 64.000000 37.000000 38.000000 48.000000 48.000000 48.000000 48.000000 28.000000 26.000000 32.000000 32.000000 32.000000 32.000000 
dram[4]: 32.500000 64.000000 64.000000 64.000000 37.000000 38.000000 48.000000 48.000000 48.000000 48.000000 28.000000 26.000000 32.000000 32.000000 32.000000 32.000000 
dram[5]: 64.000000 64.000000 64.000000 64.000000 37.000000 38.000000 48.000000 48.000000 48.000000 48.000000 26.000000 26.000000 32.000000 32.000000 32.000000 32.000000 
average row locality = 6156/151 = 40.768212
number of total memory accesses made:
dram[0]:         0         0         0         0         0         0         0         0         0         0         0         0         0         0         0         0 
dram[1]:         0         0         0         0         0         0         0         0         0         0         0         0         0         0         0         0 
dram[2]:         0         0         0         0         0         0         0         0         0         0         0         0         0         0         0         0 
dram[3]:         0         0         0         0         0         0         0         0         0         0         0         0         0         0         0         0 
dram[4]:         0         0         0         0         0         0         0         0         0         0         0         0         0         0         0         0 
dram[5]:         0         0         0         0         0         0         0         0         0         0         0         0         0         0         0         0 
total accesses: 0
min_bank_accesses = 0!
min_chip_accesses = 0!
number of total read accesses:
dram[0]:        35        32        32        32        42        42        64        64        64        64        44        42        32        32        32        32 
dram[1]:        34        32        32        32        42        42        64        64        64        64        44        42        32        32        32        32 
dram[2]:        34        32        32        32        42        44        64        64        64        64        44        42        32        32        32        32 
dram[3]:        34        32        32        32        42        44        64        64        64        64        44        42        32        32        32        32 
dram[4]:        33        32        32        32        42        44        64        64        64        64        44        42        32        32        32        32 
dram[5]:        32        32        32        32        42        44        64        64        64        64        42        42        32        32        32        32 
total reads: 4108
bank skew: 64/32 = 2.00
chip skew: 686/682 = 1.01
number of total write accesses:
dram[0]:        30        32        32        32        32        32        32        32        32        32        12        10         0         0         0         0 
dram[1]:        32        32        32        32        32        32        32        32        32        32        12        10         0         0         0         0 
dram[2]:        32        32        32        32        32        32        32        32        32        32        12        10         0         0         0         0 
dram[3]:        32        32        32        32        32        32        32        32        32        32        12        10         0         0         0         0 
dram[4]:        32        32        32        32        32        32        32        32        32        32        12        10         0         0         0         0 
dram[5]:        32        32        32        32        32        32        32        32        32        32        10        10         0         0         0         0 
total reads: 2048
min_bank_accesses = 0!
chip skew: 342/340 = 1.01
average mf latency per bank:
dram[0]:        464       142       142       140       243       238       416       413       416       413       628       671       918       909       784       763
dram[1]:        133       148       133       142       234       241       404       417       406       419       599       666       926       912       783       760
dram[2]:        136       153       134       145       236       261       402       433       408       408       627       671       914       893       782       756
dram[3]:        137       158       141       134       238       251       408       413       412       402       620       645       905       890       779       752
dram[4]:        140       162       139       134       235       253       405       409       409       397       632       606       916       883       788       754
dram[5]:        141       163       137       138       235       258       406       402       417       395       649       598       907       874       773       739
maximum mf latency per bank:
dram[0]:        483       374       329       359       396       433       538       582       575       527       584       606       604       623       279       271
dram[1]:        320       400       316       398       379       463       501       630       518       537       461       628       606       640       268       280
dram[2]:        329       417       322       399       331       379       539       579       533       545       500       554       607       551       270       275
dram[3]:        323       451       366       301       366       347       574       565       581       491       509       535       600       483       268       282
dram[4]:        343       442       338       313       437       385       522       570       532       417       551       432       587       400       303       268
dram[5]:        374       464       346       306       439       355       510       520       547       437       547       346       500       371       268       272

Number of Memory Banks Accessed per Memory Operation per Warp (from 0):
0	0	0	0	0	0	0	0	0	0	0	0	0	0	0	0	0	0	0	0	0	0	0	0	0	0	0	0	0	0	0	0	0	0	0	0	0	0	0	0	0	0	0	0	0	0	0	0	0	0	0	0	0	0	0	0	0	0	0	0	0	0	0	0	0	0	0	0	0	0	0	0	0	0	0	0	0	0	0	0	0	0	0	0	0	0	0	0	0	0	0	0	0	0	0	0	
Average # of Memory Banks Accessed per Memory Operation per Warp=-nan

position of mrq chosen
0	0	0	0	0	0	0	0	0	0	0	0	0	0	0	0	

average position of mrq chosen = -nan
Memory Partition 0: 
Cache L2_bank_000:
MSHR contents

Cache L2_bank_001:
MSHR contents

In Dram Latency Queue (total = 0): 
DRAM[0]: 16 bks, busW=4 BL=8 CL=12, tRRD=2 tCCD=6, tRCD=12 tRAS=28 tRP=12 tRC=40
n_cmd=145063 n_nop=142975 n_act=27 n_pre=11 n_req=1025 n_rd=1370 n_write=680 bw_util=0.02826
n_activity=11917 dram_eff=0.344
bk0: 70a 143977i bk1: 64a 144033i bk2: 64a 144041i bk3: 64a 144080i bk4: 84a 144044i bk5: 84a 144012i bk6: 128a 143824i bk7: 128a 143591i bk8: 128a 144024i bk9: 128a 143781i bk10: 88a 144326i bk11: 84a 144269i bk12: 64a 144548i bk13: 64a 144483i bk14: 64a 144920i bk15: 64a 144914i 
dram_util_bins: 0 0 0 0 0 0 0 0 0 0
dram_eff_bins: 0 0 0 0 0 0 0 0 0 0
mrqq: max=16 avg=0.144854
Memory Partition 1: 
Cache L2_bank_002:
MSHR contents

Cache L2_bank_003:
MSHR contents

In Dram Latency Queue (total = 0): 
DRAM[1]: 16 bks, busW=4 BL=8 CL=12, tRRD=2 tCCD=6, tRCD=12 tRAS=28 tRP=12 tRC=40
n_cmd=145063 n_nop=142977 n_act=25 n_pre=9 n_req=1026 n_rd=1368 n_write=684 bw_util=0.02829
n_activity=11864 dram_eff=0.3459
bk0: 68a 144040i bk1: 64a 144026i bk2: 64a 144124i bk3: 64a 144029i bk4: 84a 144105i bk5: 84a 144061i bk6: 128a 143760i bk7: 128a 143606i bk8: 128a 143765i bk9: 128a 143787i bk10: 88a 144413i bk11: 84a 144231i bk12: 64a 144440i bk13: 64a 144563i bk14: 64a 144918i bk15: 64a 144913i 
dram_util_bins: 0 0 0 0 0 0 0 0 0 0
dram_eff_bins: 0 0 0 0 0 0 0 0 0 0
mrqq: max=16 avg=0.129647
Memory Partition 2: 
Cache L2_bank_004:
MSHR contents

Cache L2_bank_005:
MSHR contents

In Dram Latency Queue (total = 0): 
DRAM[2]: 16 bks, busW=4 BL=8 CL=12, tRRD=2 tCCD=6, tRCD=12 tRAS=28 tRP=12 tRC=40
n_cmd=145063 n_nop=142973 n_act=25 n_pre=9 n_req=1028 n_rd=1372 n_write=684 bw_util=0.02835
n_activity=11879 dram_eff=0.3462
bk0: 68a 143974i bk1: 64a 144012i bk2: 64a 144204i bk3: 64a 144038i bk4: 84a 144149i bk5: 88a 144033i bk6: 128a 143800i bk7: 128a 143516i bk8: 128a 143892i bk9: 128a 143814i bk10: 88a 144378i bk11: 84a 144203i bk12: 64a 144519i bk13: 64a 144616i bk14: 64a 144908i bk15: 64a 144915i 
dram_util_bins: 0 0 0 0 0 0 0 0 0 0
dram_eff_bins: 0 0 0 0 0 0 0 0 0 0
mrqq: max=16 avg=0.133053
Memory Partition 3: 
Cache L2_bank_006:
MSHR contents
MSHR: tag=0x8007e780, atomic=0 1 entries : 0x10b7bde8 :  mf: uid=1416819, sid12:w21, part=3, addr=0x8007e780, load , size=128, unknown  status = IN_PARTITION_DRAM (109894), 

Cache L2_bank_007:
MSHR contents

In Dram Latency Queue (total = 0): 
DRAM[3]: 16 bks, busW=4 BL=8 CL=12, tRRD=2 tCCD=6, tRCD=12 tRAS=28 tRP=12 tRC=40
n_cmd=145063 n_nop=142973 n_act=25 n_pre=9 n_req=1028 n_rd=1372 n_write=684 bw_util=0.02835
n_activity=11829 dram_eff=0.3476
bk0: 68a 144033i bk1: 64a 143952i bk2: 64a 144064i bk3: 64a 144119i bk4: 84a 144039i bk5: 88a 143992i bk6: 128a 143784i bk7: 128a 143517i bk8: 128a 143844i bk9: 128a 143731i bk10: 88a 144267i bk11: 84a 144265i bk12: 64a 144564i bk13: 64a 144470i bk14: 64a 144914i bk15: 64a 144899i 
dram_util_bins: 0 0 0 0 0 0 0 0 0 0
dram_eff_bins: 0 0 0 0 0 0 0 0 0 0
mrqq: max=16 avg=0.154498
Memory Partition 4: 
Cache L2_bank_008:
MSHR contents

Cache L2_bank_009:
MSHR contents

In Dram Latency Queue (total = 0): 
DRAM[4]: 16 bks, busW=4 BL=8 CL=12, tRRD=2 tCCD=6, tRCD=12 tRAS=28 tRP=12 tRC=40
n_cmd=145063 n_nop=142975 n_act=25 n_pre=9 n_req=1027 n_rd=1370 n_write=684 bw_util=0.02832
n_activity=11995 dram_eff=0.3425
bk0: 66a 144038i bk1: 64a 143962i bk2: 64a 144161i bk3: 64a 144199i bk4: 84a 144072i bk5: 88a 144022i bk6: 128a 143763i bk7: 128a 143631i bk8: 128a 143917i bk9: 128a 143843i bk10: 88a 144298i bk11: 84a 144364i bk12: 64a 144719i bk13: 64a 144760i bk14: 64a 144916i bk15: 64a 144916i 
dram_util_bins: 0 0 0 0 0 0 0 0 0 0
dram_eff_bins: 0 0 0 0 0 0 0 0 0 0
mrqq: max=16 avg=0.13592
Memory Partition 5: 
Cache L2_bank_010:
MSHR contents

Cache L2_bank_011:
MSHR contents

In Dram Latency Queue (total = 0): 
DRAM[5]: 16 bks, busW=4 BL=8 CL=12, tRRD=2 tCCD=6, tRCD=12 tRAS=28 tRP=12 tRC=40
n_cmd=145063 n_nop=142987 n_act=24 n_pre=8 n_req=1022 n_rd=1364 n_write=680 bw_util=0.02818
n_activity=11901 dram_eff=0.3435
bk0: 64a 144013i bk1: 64a 143983i bk2: 64a 144077i bk3: 64a 144115i bk4: 84a 144070i bk5: 88a 144009i bk6: 128a 143826i bk7: 128a 143595i bk8: 128a 143855i bk9: 128a 143842i bk10: 84a 144500i bk11: 84a 144554i bk12: 64a 144739i bk13: 64a 144694i bk14: 64a 144916i bk15: 64a 144916i 
dram_util_bins: 0 0 0 0 0 0 0 0 0 0
dram_eff_bins: 0 0 0 0 0 0 0 0 0 0
mrqq: max=16 avg=0.143496

========= L2 cache stats =========
L2_cache_bank[0]: Access = 1084, Miss = 345, Miss_rate = 0.318, Pending_hits = 15, Reservation_fails = 428
L2_cache_bank[1]: Access = 976, Miss = 340, Miss_rate = 0.348, Pending_hits = 0, Reservation_fails = 77
L2_cache_bank[2]: Access = 1007, Miss = 344, Miss_rate = 0.342, Pending_hits = 6, Reservation_fails = 256
L2_cache_bank[3]: Access = 976, Miss = 340, Miss_rate = 0.348, Pending_hits = 0, Reservation_fails = 41
L2_cache_bank[4]: Access = 1008, Miss = 344, Miss_rate = 0.341, Pending_hits = 4, Reservation_fails = 164
L2_cache_bank[5]: Access = 978, Miss = 342, Miss_rate = 0.350, Pending_hits = 0, Reservation_fails = 82
L2_cache_bank[6]: Access = 1008, Miss = 344, Miss_rate = 0.341, Pending_hits = 6, Reservation_fails = 212
L2_cache_bank[7]: Access = 977, Miss = 342, Miss_rate = 0.350, Pending_hits = 0, Reservation_fails = 66
L2_cache_bank[8]: Access = 997, Miss = 343, Miss_rate = 0.344, Pending_hits = 0, Reservation_fails = 22
L2_cache_bank[9]: Access = 979, Miss = 342, Miss_rate = 0.349, Pending_hits = 0, Reservation_fails = 56
L2_cache_bank[10]: Access = 979, Miss = 340, Miss_rate = 0.347, Pending_hits = 0, Reservation_fails = 79
L2_cache_bank[11]: Access = 975, Miss = 342, Miss_rate = 0.351, Pending_hits = 0, Reservation_fails = 48
L2_total_cache_accesses = 11944
L2_total_cache_misses = 4108
L2_total_cache_miss_rate = 0.3439
L2_total_cache_pending_hits = 31
L2_total_cache_reservation_fails = 1531
L2_total_cache_breakdown:
	L2_cache_stats_breakdown[GLOBAL_ACC_R][HIT] = 7690
	L2_cache_stats_breakdown[GLOBAL_ACC_R][HIT_RESERVED] = 6
	L2_cache_stats_breakdown[GLOBAL_ACC_R][MISS] = 2050
	L2_cache_stats_breakdown[GLOBAL_ACC_R][RESERVATION_FAIL] = 728
	L2_cache_stats_breakdown[CONST_ACC_R][HIT] = 11
	L2_cache_stats_breakdown[CONST_ACC_R][HIT_RESERVED] = 3
	L2_cache_stats_breakdown[CONST_ACC_R][MISS] = 1
	L2_cache_stats_breakdown[CONST_ACC_R][RESERVATION_FAIL] = 109
	L2_cache_stats_breakdown[GLOBAL_ACC_W][MISS] = 2048
	L2_cache_stats_breakdown[INST_ACC_R][HIT] = 104
	L2_cache_stats_breakdown[INST_ACC_R][HIT_RESERVED] = 22
	L2_cache_stats_breakdown[INST_ACC_R][MISS] = 9
	L2_cache_stats_breakdown[INST_ACC_R][RESERVATION_FAIL] = 694
L2_cache_data_port_util = 0.024
L2_cache_fill_port_util = 0.012

icnt_total_pkts_mem_to_simt=51498
icnt_total_pkts_simt_to_mem=20136
LD_mem_lat_dist  0 0 0 0 0 0 0 0 0 0 0 0 0 0 0 0 0 0 0 0 0 0 0 0 0 0 0
ST_mem_lat_dist  0 0 0 0 0 0 0 0 0 0 0 0 0 0 0 0 0 0 0 0 0 0 0 0 0 0 0
----------------------------Interconnect-DETAILS--------------------------------
Class 0:
Packet latency average = 12.394
	minimum = 6
	maximum = 109
Network latency average = 11.2971
	minimum = 6
	maximum = 109
Slowest packet = 93
Flit latency average = 10.4061
	minimum = 6
	maximum = 109
Slowest flit = 183
Fragmentation average = 0
	minimum = 0
	maximum = 0
Injected packet rate average = 0.00805064
	minimum = 0.00671538 (at node 1)
	maximum = 0.00986378 (at node 15)
Accepted packet rate average = 0.00805064
	minimum = 0.00671538 (at node 1)
	maximum = 0.00986378 (at node 15)
Injected flit rate average = 0.0241418
	minimum = 0.0115108 (at node 9)
	maximum = 0.0428583 (at node 15)
Accepted flit rate average= 0.0241418
	minimum = 0.0150596 (at node 26)
	maximum = 0.0337771 (at node 6)
Injected packet length average = 2.99874
Accepted packet length average = 2.99874
Total in-flight flits = 0 (0 measured)
====== Overall Traffic Statistics ======
====== Traffic class 0 ======
Packet latency average = 12.394 (1 samples)
	minimum = 6 (1 samples)
	maximum = 109 (1 samples)
Network latency average = 11.2971 (1 samples)
	minimum = 6 (1 samples)
	maximum = 109 (1 samples)
Flit latency average = 10.4061 (1 samples)
	minimum = 6 (1 samples)
	maximum = 109 (1 samples)
Fragmentation average = 0 (1 samples)
	minimum = 0 (1 samples)
	maximum = 0 (1 samples)
Injected packet rate average = 0.00805064 (1 samples)
	minimum = 0.00671538 (1 samples)
	maximum = 0.00986378 (1 samples)
Accepted packet rate average = 0.00805064 (1 samples)
	minimum = 0.00671538 (1 samples)
	maximum = 0.00986378 (1 samples)
Injected flit rate average = 0.0241418 (1 samples)
	minimum = 0.0115108 (1 samples)
	maximum = 0.0428583 (1 samples)
Accepted flit rate average = 0.0241418 (1 samples)
	minimum = 0.0150596 (1 samples)
	maximum = 0.0337771 (1 samples)
Injected packet size average = 2.99874 (1 samples)
Accepted packet size average = 2.99874 (1 samples)
Hops average = 1 (1 samples)
----------------------------END-of-Interconnect-DETAILS-------------------------


gpgpu_simulation_time = 0 days, 0 hrs, 2 min, 44 sec (164 sec)
gpgpu_simulation_rate = 402880 (inst/sec)
gpgpu_simulation_rate = 670 (cycle/sec)
Processing time: 164226.625000 (ms) -- do done kernel  
hello
Test PASSED

Press ENTER to exit...
