

        *** GPGPU-Sim Simulator Version 3.2.2  [build 0] ***


GPGPU-Sim PTX: simulation mode 0 (can change with PTX_SIM_MODE_FUNC environment variable:
               1=functional simulation only, 0=detailed performance simulator)
GPGPU-Sim: Configuration options:

-network_mode                           1 # Interconnection network mode
-inter_config_file   config_fermi_islip.icnt # Interconnection network config file
-gpgpu_ptx_use_cuobjdump                    1 # Use cuobjdump to extract ptx and sass from binaries
-gpgpu_experimental_lib_support                    0 # Try to extract code from cuda libraries [Broken because of unknown cudaGetExportTable]
-gpgpu_ptx_convert_to_ptxplus                    0 # Convert SASS (native ISA) to ptxplus and run ptxplus
-gpgpu_ptx_force_max_capability                   20 # Force maximum compute capability
-gpgpu_ptx_inst_debug_to_file                    0 # Dump executed instructions' debug information to file
-gpgpu_ptx_inst_debug_file       inst_debug.txt # Executed instructions' debug output file
-gpgpu_ptx_inst_debug_thread_uid                    1 # Thread UID for executed instructions' debug output
-gpgpu_simd_model                       1 # 1 = post-dominator
-gpgpu_shader_core_pipeline              1536:32 # shader core pipeline config, i.e., {<nthread>:<warpsize>}
-gpgpu_tex_cache:l1  4:128:24,L:R:m:N:L,F:128:4,128:2 # per-shader L1 texture cache  (READ-ONLY) config  {<nsets>:<bsize>:<assoc>,<rep>:<wr>:<alloc>:<wr_alloc>,<mshr>:<N>:<merge>,<mq>:<rf>}
-gpgpu_const_cache:l1 64:64:2,L:R:f:N:L,A:2:32,4 # per-shader L1 constant memory cache  (READ-ONLY) config  {<nsets>:<bsize>:<assoc>,<rep>:<wr>:<alloc>:<wr_alloc>,<mshr>:<N>:<merge>,<mq>} 
-gpgpu_cache:il1     4:128:4,L:R:f:N:L,A:2:32,4 # shader L1 instruction cache config  {<nsets>:<bsize>:<assoc>,<rep>:<wr>:<alloc>:<wr_alloc>,<mshr>:<N>:<merge>,<mq>} 
-gpgpu_cache:dl1     32:128:4,L:L:m:N:H,A:32:8,8 # per-shader L1 data cache config  {<nsets>:<bsize>:<assoc>,<rep>:<wr>:<alloc>:<wr_alloc>,<mshr>:<N>:<merge>,<mq> | none}
-gpgpu_cache:dl1PrefL1                 none # per-shader L1 data cache config  {<nsets>:<bsize>:<assoc>,<rep>:<wr>:<alloc>:<wr_alloc>,<mshr>:<N>:<merge>,<mq> | none}
-gpgpu_cache:dl1PreShared                 none # per-shader L1 data cache config  {<nsets>:<bsize>:<assoc>,<rep>:<wr>:<alloc>:<wr_alloc>,<mshr>:<N>:<merge>,<mq> | none}
-gmem_skip_L1D                          0 # global memory access skip L1D cache (implements -Xptxas -dlcm=cg, default=no skip)
-gpgpu_perfect_mem                      0 # enable perfect memory mode (no cache miss)
-n_regfile_gating_group                    4 # group of lanes that should be read/written together)
-gpgpu_clock_gated_reg_file                    0 # enable clock gated reg file for power calculations
-gpgpu_clock_gated_lanes                    0 # enable clock gated lanes for power calculations
-gpgpu_shader_registers                32768 # Number of registers per shader core. Limits number of concurrent CTAs. (default 8192)
-gpgpu_shader_cta                       8 # Maximum number of concurrent CTAs in shader (default 8)
-gpgpu_num_cta_barriers                   16 # Maximum number of named barriers per CTA (default 16)
-gpgpu_n_clusters                      15 # number of processing clusters
-gpgpu_n_cores_per_cluster                    1 # number of simd cores per cluster
-gpgpu_n_cluster_ejection_buffer_size                    8 # number of packets in ejection buffer
-gpgpu_n_ldst_response_buffer_size                    2 # number of response packets in ld/st unit ejection buffer
-gpgpu_shmem_size                   16384 # Size of shared memory per shader core (default 16kB)
-gpgpu_shmem_size                   49152 # Size of shared memory per shader core (default 16kB)
-gpgpu_shmem_size_PrefL1                16384 # Size of shared memory per shader core (default 16kB)
-gpgpu_shmem_size_PrefShared                16384 # Size of shared memory per shader core (default 16kB)
-gpgpu_shmem_num_banks                   32 # Number of banks in the shared memory in each shader core (default 16)
-gpgpu_shmem_limited_broadcast                    0 # Limit shared memory to do one broadcast per cycle (default on)
-gpgpu_shmem_warp_parts                    1 # Number of portions a warp is divided into for shared memory bank conflict check 
-gpgpu_warpdistro_shader                   -1 # Specify which shader core to collect the warp size distribution from
-gpgpu_warp_issue_shader                    0 # Specify which shader core to collect the warp issue distribution from
-gpgpu_local_mem_map                    1 # Mapping from local memory space address to simulated GPU physical address space (default = enabled)
-gpgpu_num_reg_banks                   16 # Number of register banks (default = 8)
-gpgpu_reg_bank_use_warp_id                    0 # Use warp ID in mapping registers to banks (default = off)
-gpgpu_operand_collector_num_units_sp                    6 # number of collector units (default = 4)
-gpgpu_operand_collector_num_units_sfu                    8 # number of collector units (default = 4)
-gpgpu_operand_collector_num_units_mem                    2 # number of collector units (default = 2)
-gpgpu_operand_collector_num_units_gen                    0 # number of collector units (default = 0)
-gpgpu_operand_collector_num_in_ports_sp                    2 # number of collector unit in ports (default = 1)
-gpgpu_operand_collector_num_in_ports_sfu                    1 # number of collector unit in ports (default = 1)
-gpgpu_operand_collector_num_in_ports_mem                    1 # number of collector unit in ports (default = 1)
-gpgpu_operand_collector_num_in_ports_gen                    0 # number of collector unit in ports (default = 0)
-gpgpu_operand_collector_num_out_ports_sp                    2 # number of collector unit in ports (default = 1)
-gpgpu_operand_collector_num_out_ports_sfu                    1 # number of collector unit in ports (default = 1)
-gpgpu_operand_collector_num_out_ports_mem                    1 # number of collector unit in ports (default = 1)
-gpgpu_operand_collector_num_out_ports_gen                    0 # number of collector unit in ports (default = 0)
-gpgpu_coalesce_arch                   13 # Coalescing arch (default = 13, anything else is off for now)
-gpgpu_num_sched_per_core                    2 # Number of warp schedulers per core
-gpgpu_max_insn_issue_per_warp                    1 # Max number of instructions that can be issued per warp in one cycle by scheduler
-gpgpu_simt_core_sim_order                    1 # Select the simulation order of cores in a cluster (0=Fix, 1=Round-Robin)
-gpgpu_pipeline_widths        2,1,1,2,1,1,2 # Pipeline widths ID_OC_SP,ID_OC_SFU,ID_OC_MEM,OC_EX_SP,OC_EX_SFU,OC_EX_MEM,EX_WB
-gpgpu_num_sp_units                     2 # Number of SP units (default=1)
-gpgpu_num_sfu_units                    1 # Number of SF units (default=1)
-gpgpu_num_mem_units                    1 # Number if ldst units (default=1) WARNING: not hooked up to anything
-gpgpu_scheduler                      gto # Scheduler configuration: < lrr | gto | two_level_active > If two_level_active:<num_active_warps>:<inner_prioritization>:<outer_prioritization>For complete list of prioritization values see shader.h enum scheduler_prioritization_typeDefault: gto
-gpgpu_dram_scheduler                    1 # 0 = fifo, 1 = FR-FCFS (defaul)
-gpgpu_dram_partition_queues              8:8:8:8 # i2$:$2d:d2$:$2i
-l2_ideal                               0 # Use a ideal L2 cache that always hit
-gpgpu_cache:dl2     64:128:8,L:B:m:W:L,A:32:4,4:0,32 # unified banked L2 data cache config  {<nsets>:<bsize>:<assoc>,<rep>:<wr>:<alloc>:<wr_alloc>,<mshr>:<N>:<merge>,<mq>}
-gpgpu_cache:dl2_texture_only                    0 # L2 cache used for texture only
-gpgpu_n_mem                            6 # number of memory modules (e.g. memory controllers) in gpu
-gpgpu_n_sub_partition_per_mchannel                    2 # number of memory subpartition in each memory module
-gpgpu_n_mem_per_ctrlr                    2 # number of memory chips per memory controller
-gpgpu_memlatency_stat                   14 # track and display latency statistics 0x2 enables MC, 0x4 enables queue logs
-gpgpu_frfcfs_dram_sched_queue_size                   16 # 0 = unlimited (default); # entries per chip
-gpgpu_dram_return_queue_size                  116 # 0 = unlimited (default); # entries per chip
-gpgpu_dram_buswidth                    4 # default = 4 bytes (8 bytes per cycle at DDR)
-gpgpu_dram_burst_length                    8 # Burst length of each DRAM request (default = 4 data bus cycle)
-dram_data_command_freq_ratio                    4 # Frequency ratio between DRAM data bus and command bus (default = 2 times, i.e. DDR)
-gpgpu_dram_timing_opt nbk=16:CCD=2:RRD=6:RCD=12:RAS=28:RP=12:RC=40: CL=12:WL=4:CDLR=5:WR=12:nbkgrp=4:CCDL=3:RTPL=2 # DRAM timing parameters = {nbk:tCCD:tRRD:tRCD:tRAS:tRP:tRC:CL:WL:tCDLR:tWR:nbkgrp:tCCDL:tRTPL}
-rop_latency                          120 # ROP queue latency (default 85)
-dram_latency                         100 # DRAM latency (default 30)
-gpgpu_mem_addr_mapping dramid@8;00000000.00000000.00000000.00000000.0000RRRR.RRRRRRRR.BBBCCCCB.CCSSSSSS # mapping memory address to dram model {dramid@<start bit>;<memory address map>}
-gpgpu_mem_addr_test                    0 # run sweep test to check address mapping for aliased address
-gpgpu_mem_address_mask                    1 # 0 = old addressing mask, 1 = new addressing mask, 2 = new add. mask + flipped bank sel and chip sel bits
-gpuwattch_xml_file  gpuwattch_gtx480.xml # GPUWattch XML file
-power_simulation_enabled                    1 # Turn on power simulator (1=On, 0=Off)
-power_per_cycle_dump                    0 # Dump detailed power output each cycle
-power_trace_enabled                    0 # produce a file for the power trace (1=On, 0=Off)
-power_trace_zlevel                     6 # Compression level of the power trace output log (0=no comp, 9=highest)
-steady_power_levels_enabled                    0 # produce a file for the steady power levels (1=On, 0=Off)
-steady_state_definition                  8:4 # allowed deviation:number of samples
-gpgpu_max_cycle                        0 # terminates gpu simulation early (0 = no limit)
-gpgpu_max_insn                         0 # terminates gpu simulation early (0 = no limit)
-gpgpu_max_cta                          0 # terminates gpu simulation early (0 = no limit)
-gpgpu_runtime_stat                   500 # display runtime statistics such as dram utilization {<freq>:<flag>}
-liveness_message_freq                    1 # Minimum number of seconds between simulation liveness messages (0 = always print)
-gpgpu_flush_l1_cache                    0 # Flush L1 cache at the end of each kernel call
-gpgpu_flush_l2_cache                    0 # Flush L2 cache at the end of each kernel call
-gpgpu_deadlock_detect                    1 # Stop the simulation at deadlock (1=on (default), 0=off)
-gpgpu_ptx_instruction_classification                    0 # if enabled will classify ptx instruction types per kernel (Max 255 kernels now)
-gpgpu_ptx_sim_mode                     0 # Select between Performance (default) or Functional simulation (1)
-gpgpu_clock_domains 700.0:700.0:700.0:924.0 # Clock Domain Frequencies in MhZ {<Core Clock>:<ICNT Clock>:<L2 Clock>:<DRAM Clock>}
-gpgpu_max_concurrent_kernel                    8 # maximum kernels that can run concurrently on GPU
-gpgpu_cflog_interval                    0 # Interval between each snapshot in control flow logger
-visualizer_enabled                     0 # Turn on visualizer output (1=On, 0=Off)
-visualizer_outputfile                 NULL # Specifies the output log file for visualizer
-visualizer_zlevel                      6 # Compression level of the visualizer output log (0=no comp, 9=highest)
-trace_enabled                          0 # Turn on traces
-trace_components                    none # comma seperated list of traces to enable. Complete list found in trace_streams.tup. Default none
-trace_sampling_core                    0 # The core which is printed using CORE_DPRINTF. Default 0
-trace_sampling_memory_partition                   -1 # The memory partition which is printed using MEMPART_DPRINTF. Default -1 (i.e. all)
-enable_ptx_file_line_stats                    1 # Turn on PTX source line statistic profiling. (1 = On)
-ptx_line_stats_filename gpgpu_inst_stats.txt # Output file for PTX source line statistics.
-save_embedded_ptx                      0 # saves ptx files embedded in binary as <n>.ptx
-keep                                   0 # keep intermediate files created by GPGPU-Sim when interfacing with external programs
-gpgpu_ptx_save_converted_ptxplus                    0 # Saved converted ptxplus to a file
-ptx_opcode_latency_int         4,13,4,5,145 # Opcode latencies for integers <ADD,MAX,MUL,MAD,DIV>Default 1,1,19,25,145
-ptx_opcode_latency_fp          4,13,4,5,39 # Opcode latencies for single precision floating points <ADD,MAX,MUL,MAD,DIV>Default 1,1,1,1,30
-ptx_opcode_latency_dp         8,19,8,8,330 # Opcode latencies for double precision floating points <ADD,MAX,MUL,MAD,DIV>Default 8,8,8,8,335
-ptx_opcode_initiation_int            1,2,2,1,8 # Opcode initiation intervals for integers <ADD,MAX,MUL,MAD,DIV>Default 1,1,4,4,32
-ptx_opcode_initiation_fp            1,2,1,1,4 # Opcode initiation intervals for single precision floating points <ADD,MAX,MUL,MAD,DIV>Default 1,1,1,1,5
-ptx_opcode_initiation_dp         8,16,8,8,130 # Opcode initiation intervals for double precision floating points <ADD,MAX,MUL,MAD,DIV>Default 8,8,8,8,130
DRAM Timing Options:
nbk                                    16 # number of banks
CCD                                     2 # column to column delay
RRD                                     6 # minimal delay between activation of rows in different banks
RCD                                    12 # row to column delay
RAS                                    28 # time needed to activate row
RP                                     12 # time needed to precharge (deactivate) row
RC                                     40 # row cycle time
CDLR                                    5 # switching from write to read (changes tWTR)
WR                                     12 # last data-in to row precharge
CL                                     12 # CAS latency
WL                                      4 # Write latency
nbkgrp                                  4 # number of bank groups
CCDL                                    3 # column to column delay between accesses to different bank groups
RTPL                                    2 # read to precharge delay between accesses to different bank groups
Total number of memory sub partition = 12
addr_dec_mask[CHIP]  = 0000000000000000 	high:64 low:0
addr_dec_mask[BK]    = 000000000000e100 	high:16 low:8
addr_dec_mask[ROW]   = 000000000fff0000 	high:28 low:16
addr_dec_mask[COL]   = 0000000000001eff 	high:13 low:0
addr_dec_mask[BURST] = 000000000000003f 	high:6 low:0
sub_partition_id_mask = 0000000000000100
GPGPU-Sim uArch: clock freqs: 700000000.000000:700000000.000000:700000000.000000:924000000.000000
GPGPU-Sim uArch: clock periods: 0.00000000142857142857:0.00000000142857142857:0.00000000142857142857:0.00000000108225108225
*** Initializing Memory Statistics ***
GPGPU-Sim uArch: interconnect node map (shaderID+MemID to icntID)
GPGPU-Sim uArch: Memory nodes ID start from index: 15
GPGPU-Sim uArch:    0   1   2   3   4
GPGPU-Sim uArch:    5   6   7   8   9
GPGPU-Sim uArch:   10  11  12  13  14
GPGPU-Sim uArch:   15  16  17  18  19
GPGPU-Sim uArch:   20  21  22  23  24
GPGPU-Sim uArch:   25  26
GPGPU-Sim uArch: interconnect node reverse map (icntID to shaderID+MemID)
GPGPU-Sim uArch: Memory nodes start from ID: 15
GPGPU-Sim uArch:    0   1   2   3   4
GPGPU-Sim uArch:    5   6   7   8   9
GPGPU-Sim uArch:   10  11  12  13  14
GPGPU-Sim uArch:   15  16  17  18  19
GPGPU-Sim uArch:   20  21  22  23  24
GPGPU-Sim uArch:   25  26
9d3f3f4e4fdcc7d0e7909931677b63dc  /home/ece786/NVIDIA_GPU_Computing_SDK/C/bin/linux/release/matrix
GPGPU-Sim uArch: performance model initialization complete.
GPGPU-Sim PTX: FatBin file name extraction has not been tested on 32-bit system.
GPGPU-Sim PTX: __cudaRegisterFatBinary, fat_cubin_handle = 1, filename=matrix.cu
self exe links to: /home/ece786/NVIDIA_GPU_Computing_SDK/C/bin/linux/release/matrix
Running md5sum using "md5sum /home/ece786/NVIDIA_GPU_Computing_SDK/C/bin/linux/release/matrix "
Running cuobjdump using "$CUDA_INSTALL_PATH/bin/cuobjdump -ptx -elf -sass /home/ece786/NVIDIA_GPU_Computing_SDK/C/bin/linux/release/matrix > _cuobjdump_complete_output_VvygIv"
Parsing file _cuobjdump_complete_output_VvygIv
######### cuobjdump parser ########
## Adding new section PTX
Adding ptx filename: _cuobjdump_1.ptx
Adding arch: sm_10
Adding identifier: matrix.cu
## Adding new section ELF
Adding arch: sm_10
Adding identifier: matrix.cu
## Adding new section PTX
Adding ptx filename: _cuobjdump_2.ptx
Adding arch: sm_20
Adding identifier: matrix.cu
## Adding new section ELF
Adding arch: sm_20
Adding identifier: matrix.cu
Done parsing!!!
GPGPU-Sim PTX: __cudaRegisterFunction _Z10testKernelPfS_S_jjjj : hostFun 0x0x804b4c0, fat_cubin_handle = 1
GPGPU-Sim PTX: allocating shared region for "__cuda___cuda_local_var_35266_35_non_const_shm_matrixB28" from 0x0 to 0x0 (shared memory space)
GPGPU-Sim PTX: allocating shared region for "__cuda___cuda_local_var_35269_35_non_const_shm_subMatrixA284" from 0x100 to 0x0 (shared memory space)
GPGPU-Sim PTX: instruction assembly for function '_Z10testKernelPfS_S_jjjj'...   done.
GPGPU-Sim PTX: finding reconvergence points for '_Z10testKernelPfS_S_jjjj'...
GPGPU-Sim PTX: Finding dominators for '_Z10testKernelPfS_S_jjjj'...
GPGPU-Sim PTX: Finding immediate dominators for '_Z10testKernelPfS_S_jjjj'...
GPGPU-Sim PTX: Finding postdominators for '_Z10testKernelPfS_S_jjjj'...
GPGPU-Sim PTX: Finding immediate postdominators for '_Z10testKernelPfS_S_jjjj'...
GPGPU-Sim PTX: pre-decoding instructions for '_Z10testKernelPfS_S_jjjj'...
GPGPU-Sim PTX: reconvergence points for _Z10testKernelPfS_S_jjjj...
GPGPU-Sim PTX:  1 (potential) branch divergence @  PC=0x018 (_1.ptx:70) @%p1 bra $Lt_0_6658;
GPGPU-Sim PTX:    immediate post dominator      @  PC=0x058 (_1.ptx:80) mov.u32 %r3, __cuda___cuda_local_var_35266_35_non_const_shm_matrixB28;
GPGPU-Sim PTX:  2 (potential) branch divergence @  PC=0x0b0 (_1.ptx:92) @%p2 bra $Lt_0_9730;
GPGPU-Sim PTX:    immediate post dominator      @  PC=0x300 (_1.ptx:184) ld.param.u32 %r56, [__cudaparm__Z10testKernelPfS_S_jjjj_d_matrixC];
GPGPU-Sim PTX:  3 (potential) branch divergence @  PC=0x158 (_1.ptx:115) @%p5 bra $Lt_0_7938;
GPGPU-Sim PTX:    immediate post dominator      @  PC=0x1a8 (_1.ptx:128) bar.sync 0;
GPGPU-Sim PTX:  4 (potential) branch divergence @  PC=0x1b0 (_1.ptx:129) @!%p3 bra $Lt_0_8450;
GPGPU-Sim PTX:    immediate post dominator      @  PC=0x2b8 (_1.ptx:172) bar.sync 0;
GPGPU-Sim PTX:  5 (potential) branch divergence @  PC=0x1d0 (_1.ptx:136) @!%p4 bra $Lt_0_10754;
GPGPU-Sim PTX:    immediate post dominator      @  PC=0x2a0 (_1.ptx:167) add.s32 %r39, %r39, 1;
GPGPU-Sim PTX:  6 (potential) branch divergence @  PC=0x1e0 (_1.ptx:138) @%p6 bra $Lt_0_10754;
GPGPU-Sim PTX:    immediate post dominator      @  PC=0x2a0 (_1.ptx:167) add.s32 %r39, %r39, 1;
GPGPU-Sim PTX:  7 (potential) branch divergence @  PC=0x200 (_1.ptx:142) @%p7 bra $Lt_0_10754;
GPGPU-Sim PTX:    immediate post dominator      @  PC=0x2a0 (_1.ptx:167) add.s32 %r39, %r39, 1;
GPGPU-Sim PTX:  8 (potential) branch divergence @  PC=0x210 (_1.ptx:144) @%p8 bra $Lt_0_10754;
GPGPU-Sim PTX:    immediate post dominator      @  PC=0x2a0 (_1.ptx:167) add.s32 %r39, %r39, 1;
GPGPU-Sim PTX:  9 (potential) branch divergence @  PC=0x2b0 (_1.ptx:169) @%p9 bra $Lt_0_8962;
GPGPU-Sim PTX:    immediate post dominator      @  PC=0x2b8 (_1.ptx:172) bar.sync 0;
GPGPU-Sim PTX: 10 (potential) branch divergence @  PC=0x2d8 (_1.ptx:176) @%p10 bra $Lt_0_7682;
GPGPU-Sim PTX:    immediate post dominator      @  PC=0x2e0 (_1.ptx:177) bra.uni $Lt_0_7170;
GPGPU-Sim PTX: 11 (potential) branch divergence @  PC=0x2e0 (_1.ptx:177) bra.uni $Lt_0_7170;
GPGPU-Sim PTX:    immediate post dominator      @  PC=0x300 (_1.ptx:184) ld.param.u32 %r56, [__cudaparm__Z10testKernelPfS_S_jjjj_d_matrixC];
GPGPU-Sim PTX: ... end of reconvergence points for _Z10testKernelPfS_S_jjjj
GPGPU-Sim PTX: ... done pre-decoding instructions for '_Z10testKernelPfS_S_jjjj'.
GPGPU-Sim PTX: finished parsing EMBEDDED .ptx file _1.ptx
Adding _cuobjdump_2.ptx with cubin handle 1
GPGPU-Sim PTX: extracting embedded .ptx to temporary file "_ptx_7qdPNQ"
Running: cat _ptx_7qdPNQ | sed 's/.version 1.5/.version 1.4/' | sed 's/, texmode_independent//' | sed 's/\(\.extern \.const\[1\] .b8 \w\+\)\[\]/\1\[1\]/' | sed 's/const\[.\]/const\[0\]/g' > _ptx2_jKWoTb
GPGPU-Sim PTX: generating ptxinfo using "$CUDA_INSTALL_PATH/bin/ptxas --gpu-name=sm_20 -v _ptx2_jKWoTb --output-file  /dev/null 2> _ptx_7qdPNQinfo"
GPGPU-Sim PTX: Kernel '_Z10testKernelPfS_S_jjjj' : regs=13, lmem=0, smem=1280, cmem=60
GPGPU-Sim PTX: removing ptxinfo using "rm -f _ptx_7qdPNQ _ptx2_jKWoTb _ptx_7qdPNQinfo"
GPGPU-Sim PTX: loading globals with explicit initializers... 
GPGPU-Sim PTX: finished loading globals (0 bytes total).
GPGPU-Sim PTX: loading constants with explicit initializers...  done.
initalize A
matrix A
matrix B
Start Timer

GPGPU-Sim PTX: cudaLaunch for 0x0x804b4c0 (mode=performance simulation) on stream 0
GPGPU-Sim PTX: pushing kernel '_Z10testKernelPfS_S_jjjj' to stream 0, gridDim= (1,128,1) blockDim = (256,2,1) 
kernel '_Z10testKernelPfS_S_jjjj' transfer to GPU hardware scheduler
GPGPU-Sim uArch: Shader 1 bind to kernel 1 '_Z10testKernelPfS_S_jjjj'
GPGPU-Sim uArch: CTA/core = 3, limited by: threads
GPGPU-Sim uArch: core:  1, cta: 0 initialized @(1,0)
GPGPU-Sim uArch: Shader 2 bind to kernel 1 '_Z10testKernelPfS_S_jjjj'
GPGPU-Sim uArch: core:  2, cta: 0 initialized @(1,0)
GPGPU-Sim uArch: Shader 3 bind to kernel 1 '_Z10testKernelPfS_S_jjjj'
GPGPU-Sim uArch: core:  3, cta: 0 initialized @(1,0)
GPGPU-Sim uArch: Shader 4 bind to kernel 1 '_Z10testKernelPfS_S_jjjj'
GPGPU-Sim uArch: core:  4, cta: 0 initialized @(1,0)
GPGPU-Sim uArch: Shader 5 bind to kernel 1 '_Z10testKernelPfS_S_jjjj'
GPGPU-Sim uArch: core:  5, cta: 0 initialized @(1,0)
GPGPU-Sim uArch: Shader 6 bind to kernel 1 '_Z10testKernelPfS_S_jjjj'
GPGPU-Sim uArch: core:  6, cta: 0 initialized @(1,0)
GPGPU-Sim uArch: Shader 7 bind to kernel 1 '_Z10testKernelPfS_S_jjjj'
GPGPU-Sim uArch: core:  7, cta: 0 initialized @(1,0)
GPGPU-Sim uArch: Shader 8 bind to kernel 1 '_Z10testKernelPfS_S_jjjj'
GPGPU-Sim uArch: core:  8, cta: 0 initialized @(1,0)
GPGPU-Sim uArch: Shader 9 bind to kernel 1 '_Z10testKernelPfS_S_jjjj'
GPGPU-Sim uArch: core:  9, cta: 0 initialized @(1,0)
GPGPU-Sim uArch: Shader 10 bind to kernel 1 '_Z10testKernelPfS_S_jjjj'
GPGPU-Sim uArch: core: 10, cta: 0 initialized @(1,0)
GPGPU-Sim uArch: Shader 11 bind to kernel 1 '_Z10testKernelPfS_S_jjjj'
GPGPU-Sim uArch: core: 11, cta: 0 initialized @(1,0)
GPGPU-Sim uArch: Shader 12 bind to kernel 1 '_Z10testKernelPfS_S_jjjj'
GPGPU-Sim uArch: core: 12, cta: 0 initialized @(1,0)
GPGPU-Sim uArch: Shader 13 bind to kernel 1 '_Z10testKernelPfS_S_jjjj'
GPGPU-Sim uArch: core: 13, cta: 0 initialized @(1,0)
GPGPU-Sim uArch: Shader 14 bind to kernel 1 '_Z10testKernelPfS_S_jjjj'
GPGPU-Sim uArch: core: 14, cta: 0 initialized @(1,0)
GPGPU-Sim uArch: Shader 0 bind to kernel 1 '_Z10testKernelPfS_S_jjjj'
GPGPU-Sim uArch: core:  0, cta: 0 initialized @(1,0)
GPGPU-Sim uArch: core:  1, cta: 1 initialized @(2,0)
GPGPU-Sim uArch: core:  2, cta: 1 initialized @(2,0)
GPGPU-Sim uArch: core:  3, cta: 1 initialized @(2,0)
GPGPU-Sim uArch: core:  4, cta: 1 initialized @(2,0)
GPGPU-Sim uArch: core:  5, cta: 1 initialized @(2,0)
GPGPU-Sim uArch: core:  6, cta: 1 initialized @(2,0)
GPGPU-Sim uArch: core:  7, cta: 1 initialized @(2,0)
GPGPU-Sim uArch: core:  8, cta: 1 initialized @(2,0)
GPGPU-Sim uArch: core:  9, cta: 1 initialized @(2,0)
GPGPU-Sim uArch: core: 10, cta: 1 initialized @(2,0)
GPGPU-Sim uArch: core: 11, cta: 1 initialized @(2,0)
GPGPU-Sim uArch: core: 12, cta: 1 initialized @(2,0)
GPGPU-Sim uArch: core: 13, cta: 1 initialized @(2,0)
GPGPU-Sim uArch: core: 14, cta: 1 initialized @(2,0)
GPGPU-Sim uArch: core:  0, cta: 1 initialized @(2,0)
GPGPU-Sim uArch: core:  1, cta: 2 initialized @(3,0)
GPGPU-Sim uArch: core:  2, cta: 2 initialized @(3,0)
GPGPU-Sim uArch: core:  3, cta: 2 initialized @(3,0)
GPGPU-Sim uArch: core:  4, cta: 2 initialized @(3,0)
GPGPU-Sim uArch: core:  5, cta: 2 initialized @(3,0)
GPGPU-Sim uArch: core:  6, cta: 2 initialized @(3,0)
GPGPU-Sim uArch: core:  7, cta: 2 initialized @(3,0)
GPGPU-Sim uArch: core:  8, cta: 2 initialized @(3,0)
GPGPU-Sim uArch: core:  9, cta: 2 initialized @(3,0)
GPGPU-Sim uArch: core: 10, cta: 2 initialized @(3,0)
GPGPU-Sim uArch: core: 11, cta: 2 initialized @(3,0)
GPGPU-Sim uArch: core: 12, cta: 2 initialized @(3,0)
GPGPU-Sim uArch: core: 13, cta: 2 initialized @(3,0)
GPGPU-Sim uArch: core: 14, cta: 2 initialized @(3,0)
GPGPU-Sim uArch: core:  0, cta: 2 initialized @(3,0)
GPGPU-Sim PTX: 100000 instructions simulated : ctaid=(0,32,0) tid=(127,0,0)
GPGPU-Sim uArch: cycles simulated: 500  inst.: 120480 (ipc=241.0) sim_rate=120480 (inst/sec) elapsed = 0:0:00:01 / Tue Mar 10 21:00:44 2015
GPGPU-Sim PTX: 200000 instructions simulated : ctaid=(0,29,0) tid=(255,1,0)
GPGPU-Sim PTX: 300000 instructions simulated : ctaid=(0,9,0) tid=(255,1,0)
GPGPU-Sim uArch: cycles simulated: 1500  inst.: 368256 (ipc=245.5) sim_rate=184128 (inst/sec) elapsed = 0:0:00:02 / Tue Mar 10 21:00:45 2015
GPGPU-Sim PTX: 400000 instructions simulated : ctaid=(0,13,0) tid=(127,1,0)
GPGPU-Sim PTX: 500000 instructions simulated : ctaid=(0,17,0) tid=(127,0,0)
GPGPU-Sim PTX: 600000 instructions simulated : ctaid=(0,44,0) tid=(95,1,0)
GPGPU-Sim uArch: cycles simulated: 2000  inst.: 636416 (ipc=318.2) sim_rate=212138 (inst/sec) elapsed = 0:0:00:03 / Tue Mar 10 21:00:46 2015
GPGPU-Sim PTX: 700000 instructions simulated : ctaid=(0,2,0) tid=(95,0,0)
GPGPU-Sim PTX: 800000 instructions simulated : ctaid=(0,4,0) tid=(159,0,0)
GPGPU-Sim PTX: 900000 instructions simulated : ctaid=(0,43,0) tid=(191,0,0)
GPGPU-Sim PTX: 1000000 instructions simulated : ctaid=(0,41,0) tid=(95,1,0)
GPGPU-Sim uArch: cycles simulated: 3000  inst.: 1026496 (ipc=342.2) sim_rate=256624 (inst/sec) elapsed = 0:0:00:04 / Tue Mar 10 21:00:47 2015
GPGPU-Sim PTX: 1100000 instructions simulated : ctaid=(0,27,0) tid=(255,1,0)
GPGPU-Sim PTX: 1200000 instructions simulated : ctaid=(0,3,0) tid=(223,1,0)
GPGPU-Sim PTX: 1300000 instructions simulated : ctaid=(0,19,0) tid=(63,0,0)
GPGPU-Sim uArch: cycles simulated: 3500  inst.: 1215872 (ipc=347.4) sim_rate=243174 (inst/sec) elapsed = 0:0:00:05 / Tue Mar 10 21:00:48 2015
GPGPU-Sim PTX: 1400000 instructions simulated : ctaid=(0,17,0) tid=(223,0,0)
GPGPU-Sim PTX: 1500000 instructions simulated : ctaid=(0,13,0) tid=(255,0,0)
GPGPU-Sim PTX: 1600000 instructions simulated : ctaid=(0,34,0) tid=(31,1,0)
GPGPU-Sim PTX: 1700000 instructions simulated : ctaid=(0,18,0) tid=(95,0,0)
GPGPU-Sim uArch: cycles simulated: 4000  inst.: 1606560 (ipc=401.6) sim_rate=267760 (inst/sec) elapsed = 0:0:00:06 / Tue Mar 10 21:00:49 2015
GPGPU-Sim PTX: 1800000 instructions simulated : ctaid=(0,0,0) tid=(31,0,0)
GPGPU-Sim PTX: 1900000 instructions simulated : ctaid=(0,7,0) tid=(56,0,0)
GPGPU-Sim PTX: 2000000 instructions simulated : ctaid=(0,43,0) tid=(40,0,0)
GPGPU-Sim PTX: 2100000 instructions simulated : ctaid=(0,10,0) tid=(227,1,0)
GPGPU-Sim PTX: 2200000 instructions simulated : ctaid=(0,39,0) tid=(187,0,0)
GPGPU-Sim uArch: cycles simulated: 4500  inst.: 1967215 (ipc=437.2) sim_rate=281030 (inst/sec) elapsed = 0:0:00:07 / Tue Mar 10 21:00:50 2015
GPGPU-Sim PTX: 2300000 instructions simulated : ctaid=(0,14,0) tid=(243,0,0)
GPGPU-Sim PTX: 2400000 instructions simulated : ctaid=(0,29,0) tid=(91,0,0)
GPGPU-Sim PTX: 2500000 instructions simulated : ctaid=(0,5,0) tid=(79,1,0)
GPGPU-Sim PTX: 2600000 instructions simulated : ctaid=(0,1,0) tid=(192,1,0)
GPGPU-Sim PTX: 2700000 instructions simulated : ctaid=(0,3,0) tid=(182,1,0)
GPGPU-Sim PTX: 2800000 instructions simulated : ctaid=(0,6,0) tid=(46,0,0)
GPGPU-Sim PTX: 2900000 instructions simulated : ctaid=(0,1,0) tid=(255,0,0)
GPGPU-Sim PTX: 3000000 instructions simulated : ctaid=(0,9,0) tid=(36,0,0)
GPGPU-Sim PTX: 3100000 instructions simulated : ctaid=(0,11,0) tid=(208,1,0)
GPGPU-Sim uArch: cycles simulated: 5500  inst.: 2735505 (ipc=497.4) sim_rate=341938 (inst/sec) elapsed = 0:0:00:08 / Tue Mar 10 21:00:51 2015
GPGPU-Sim PTX: 3200000 instructions simulated : ctaid=(0,2,0) tid=(194,1,0)
GPGPU-Sim PTX: 3300000 instructions simulated : ctaid=(0,13,0) tid=(150,1,0)
GPGPU-Sim PTX: 3400000 instructions simulated : ctaid=(0,7,0) tid=(77,1,0)
GPGPU-Sim PTX: 3500000 instructions simulated : ctaid=(0,1,0) tid=(140,1,0)
GPGPU-Sim uArch: cycles simulated: 6000  inst.: 3119503 (ipc=519.9) sim_rate=346611 (inst/sec) elapsed = 0:0:00:09 / Tue Mar 10 21:00:52 2015
GPGPU-Sim PTX: 3600000 instructions simulated : ctaid=(0,2,0) tid=(32,1,0)
GPGPU-Sim PTX: 3700000 instructions simulated : ctaid=(0,9,0) tid=(53,1,0)
GPGPU-Sim PTX: 3800000 instructions simulated : ctaid=(0,14,0) tid=(138,1,0)
GPGPU-Sim PTX: 3900000 instructions simulated : ctaid=(0,22,0) tid=(254,0,0)
GPGPU-Sim PTX: 4000000 instructions simulated : ctaid=(0,20,0) tid=(87,0,0)
GPGPU-Sim uArch: cycles simulated: 6500  inst.: 3510600 (ipc=540.1) sim_rate=351060 (inst/sec) elapsed = 0:0:00:10 / Tue Mar 10 21:00:53 2015
GPGPU-Sim PTX: 4100000 instructions simulated : ctaid=(0,17,0) tid=(93,0,0)
GPGPU-Sim PTX: 4200000 instructions simulated : ctaid=(0,5,0) tid=(150,1,0)
GPGPU-Sim PTX: 4300000 instructions simulated : ctaid=(0,17,0) tid=(151,0,0)
GPGPU-Sim PTX: 4400000 instructions simulated : ctaid=(0,2,0) tid=(0,0,0)
GPGPU-Sim uArch: cycles simulated: 7000  inst.: 3911087 (ipc=558.7) sim_rate=325923 (inst/sec) elapsed = 0:0:00:12 / Tue Mar 10 21:00:55 2015
GPGPU-Sim PTX: 4500000 instructions simulated : ctaid=(0,43,0) tid=(204,0,0)
GPGPU-Sim PTX: 4600000 instructions simulated : ctaid=(0,1,0) tid=(251,1,0)
GPGPU-Sim PTX: 4700000 instructions simulated : ctaid=(0,16,0) tid=(163,1,0)
GPGPU-Sim PTX: 4800000 instructions simulated : ctaid=(0,23,0) tid=(229,0,0)
GPGPU-Sim PTX: 4900000 instructions simulated : ctaid=(0,13,0) tid=(57,1,0)
GPGPU-Sim uArch: cycles simulated: 7500  inst.: 4297206 (ipc=573.0) sim_rate=330554 (inst/sec) elapsed = 0:0:00:13 / Tue Mar 10 21:00:56 2015
GPGPU-Sim PTX: 5000000 instructions simulated : ctaid=(0,10,0) tid=(110,1,0)
GPGPU-Sim PTX: 5100000 instructions simulated : ctaid=(0,12,0) tid=(43,0,0)
GPGPU-Sim PTX: 5200000 instructions simulated : ctaid=(0,29,0) tid=(143,0,0)
GPGPU-Sim PTX: 5300000 instructions simulated : ctaid=(0,12,0) tid=(5,0,0)
GPGPU-Sim uArch: cycles simulated: 8000  inst.: 4683297 (ipc=585.4) sim_rate=334521 (inst/sec) elapsed = 0:0:00:14 / Tue Mar 10 21:00:57 2015
GPGPU-Sim PTX: 5400000 instructions simulated : ctaid=(0,20,0) tid=(88,1,0)
GPGPU-Sim PTX: 5500000 instructions simulated : ctaid=(0,13,0) tid=(11,0,0)
GPGPU-Sim PTX: 5600000 instructions simulated : ctaid=(0,5,0) tid=(49,0,0)
GPGPU-Sim PTX: 5700000 instructions simulated : ctaid=(0,12,0) tid=(78,1,0)
GPGPU-Sim PTX: 5800000 instructions simulated : ctaid=(0,14,0) tid=(17,1,0)
GPGPU-Sim uArch: cycles simulated: 8500  inst.: 5067529 (ipc=596.2) sim_rate=337835 (inst/sec) elapsed = 0:0:00:15 / Tue Mar 10 21:00:58 2015
GPGPU-Sim PTX: 5900000 instructions simulated : ctaid=(0,1,0) tid=(75,0,0)
GPGPU-Sim PTX: 6000000 instructions simulated : ctaid=(0,5,0) tid=(93,1,0)
GPGPU-Sim PTX: 6100000 instructions simulated : ctaid=(0,5,0) tid=(33,0,0)
GPGPU-Sim PTX: 6200000 instructions simulated : ctaid=(0,18,0) tid=(249,0,0)
GPGPU-Sim uArch: cycles simulated: 9000  inst.: 5452652 (ipc=605.9) sim_rate=340790 (inst/sec) elapsed = 0:0:00:16 / Tue Mar 10 21:00:59 2015
GPGPU-Sim PTX: 6300000 instructions simulated : ctaid=(0,9,0) tid=(51,1,0)
GPGPU-Sim PTX: 6400000 instructions simulated : ctaid=(0,7,0) tid=(27,1,0)
GPGPU-Sim PTX: 6500000 instructions simulated : ctaid=(0,10,0) tid=(135,1,0)
GPGPU-Sim PTX: 6600000 instructions simulated : ctaid=(0,9,0) tid=(48,1,0)
GPGPU-Sim uArch: cycles simulated: 9500  inst.: 5839051 (ipc=614.6) sim_rate=343473 (inst/sec) elapsed = 0:0:00:17 / Tue Mar 10 21:01:00 2015
GPGPU-Sim PTX: 6700000 instructions simulated : ctaid=(0,26,0) tid=(150,1,0)
GPGPU-Sim PTX: 6800000 instructions simulated : ctaid=(0,34,0) tid=(142,0,0)
GPGPU-Sim PTX: 6900000 instructions simulated : ctaid=(0,35,0) tid=(204,0,0)
GPGPU-Sim PTX: 7000000 instructions simulated : ctaid=(0,18,0) tid=(246,1,0)
GPGPU-Sim PTX: 7100000 instructions simulated : ctaid=(0,31,0) tid=(129,0,0)
GPGPU-Sim uArch: cycles simulated: 10000  inst.: 6227862 (ipc=622.8) sim_rate=345992 (inst/sec) elapsed = 0:0:00:18 / Tue Mar 10 21:01:01 2015
GPGPU-Sim PTX: 7200000 instructions simulated : ctaid=(0,19,0) tid=(140,1,0)
GPGPU-Sim PTX: 7300000 instructions simulated : ctaid=(0,14,0) tid=(1,1,0)
GPGPU-Sim PTX: 7400000 instructions simulated : ctaid=(0,17,0) tid=(203,1,0)
GPGPU-Sim PTX: 7500000 instructions simulated : ctaid=(0,3,0) tid=(242,0,0)
GPGPU-Sim uArch: cycles simulated: 10500  inst.: 6618725 (ipc=630.4) sim_rate=348353 (inst/sec) elapsed = 0:0:00:19 / Tue Mar 10 21:01:02 2015
GPGPU-Sim PTX: 7600000 instructions simulated : ctaid=(0,2,0) tid=(108,1,0)
GPGPU-Sim PTX: 7700000 instructions simulated : ctaid=(0,30,0) tid=(214,1,0)
GPGPU-Sim PTX: 7800000 instructions simulated : ctaid=(0,36,0) tid=(10,0,0)
GPGPU-Sim PTX: 7900000 instructions simulated : ctaid=(0,1,0) tid=(50,1,0)
GPGPU-Sim PTX: 8000000 instructions simulated : ctaid=(0,12,0) tid=(66,1,0)
GPGPU-Sim uArch: cycles simulated: 11000  inst.: 7005392 (ipc=636.9) sim_rate=350269 (inst/sec) elapsed = 0:0:00:20 / Tue Mar 10 21:01:03 2015
GPGPU-Sim PTX: 8100000 instructions simulated : ctaid=(0,1,0) tid=(64,0,0)
GPGPU-Sim PTX: 8200000 instructions simulated : ctaid=(0,10,0) tid=(195,1,0)
GPGPU-Sim PTX: 8300000 instructions simulated : ctaid=(0,8,0) tid=(188,1,0)
GPGPU-Sim PTX: 8400000 instructions simulated : ctaid=(0,10,0) tid=(91,1,0)
GPGPU-Sim uArch: cycles simulated: 11500  inst.: 7389694 (ipc=642.6) sim_rate=351890 (inst/sec) elapsed = 0:0:00:21 / Tue Mar 10 21:01:04 2015
GPGPU-Sim PTX: 8500000 instructions simulated : ctaid=(0,7,0) tid=(102,1,0)
GPGPU-Sim PTX: 8600000 instructions simulated : ctaid=(0,12,0) tid=(249,0,0)
GPGPU-Sim PTX: 8700000 instructions simulated : ctaid=(0,16,0) tid=(255,1,0)
GPGPU-Sim PTX: 8800000 instructions simulated : ctaid=(0,14,0) tid=(80,0,0)
GPGPU-Sim PTX: 8900000 instructions simulated : ctaid=(0,12,0) tid=(184,1,0)
GPGPU-Sim PTX: 9000000 instructions simulated : ctaid=(0,7,0) tid=(7,0,0)
GPGPU-Sim PTX: 9100000 instructions simulated : ctaid=(0,1,0) tid=(131,1,0)
GPGPU-Sim PTX: 9200000 instructions simulated : ctaid=(0,3,0) tid=(67,0,0)
GPGPU-Sim PTX: 9300000 instructions simulated : ctaid=(0,5,0) tid=(71,1,0)
GPGPU-Sim uArch: cycles simulated: 12500  inst.: 8159963 (ipc=652.8) sim_rate=370907 (inst/sec) elapsed = 0:0:00:22 / Tue Mar 10 21:01:05 2015
GPGPU-Sim PTX: 9400000 instructions simulated : ctaid=(0,17,0) tid=(7,0,0)
GPGPU-Sim PTX: 9500000 instructions simulated : ctaid=(0,26,0) tid=(61,0,0)
GPGPU-Sim PTX: 9600000 instructions simulated : ctaid=(0,2,0) tid=(200,1,0)
GPGPU-Sim PTX: 9700000 instructions simulated : ctaid=(0,29,0) tid=(161,1,0)
GPGPU-Sim PTX: 9800000 instructions simulated : ctaid=(0,44,0) tid=(99,1,0)
GPGPU-Sim uArch: cycles simulated: 13000  inst.: 8555090 (ipc=658.1) sim_rate=371960 (inst/sec) elapsed = 0:0:00:23 / Tue Mar 10 21:01:06 2015
GPGPU-Sim PTX: 9900000 instructions simulated : ctaid=(0,22,0) tid=(186,0,0)
GPGPU-Sim PTX: 10000000 instructions simulated : ctaid=(0,16,0) tid=(223,1,0)
GPGPU-Sim PTX: 10100000 instructions simulated : ctaid=(0,10,0) tid=(253,0,0)
GPGPU-Sim PTX: 10200000 instructions simulated : ctaid=(0,10,0) tid=(180,1,0)
GPGPU-Sim uArch: cycles simulated: 13500  inst.: 8938283 (ipc=662.1) sim_rate=372428 (inst/sec) elapsed = 0:0:00:24 / Tue Mar 10 21:01:07 2015
GPGPU-Sim PTX: 10300000 instructions simulated : ctaid=(0,3,0) tid=(57,1,0)
GPGPU-Sim PTX: 10400000 instructions simulated : ctaid=(0,31,0) tid=(201,1,0)
GPGPU-Sim PTX: 10500000 instructions simulated : ctaid=(0,43,0) tid=(43,0,0)
GPGPU-Sim PTX: 10600000 instructions simulated : ctaid=(0,9,0) tid=(147,1,0)
GPGPU-Sim PTX: 10700000 instructions simulated : ctaid=(0,11,0) tid=(202,0,0)
GPGPU-Sim uArch: cycles simulated: 14000  inst.: 9324735 (ipc=666.1) sim_rate=372989 (inst/sec) elapsed = 0:0:00:25 / Tue Mar 10 21:01:08 2015
GPGPU-Sim PTX: 10800000 instructions simulated : ctaid=(0,3,0) tid=(163,0,0)
GPGPU-Sim PTX: 10900000 instructions simulated : ctaid=(0,14,0) tid=(222,0,0)
GPGPU-Sim PTX: 11000000 instructions simulated : ctaid=(0,29,0) tid=(120,0,0)
GPGPU-Sim PTX: 11100000 instructions simulated : ctaid=(0,2,0) tid=(183,0,0)
GPGPU-Sim uArch: cycles simulated: 14500  inst.: 9710115 (ipc=669.7) sim_rate=373465 (inst/sec) elapsed = 0:0:00:26 / Tue Mar 10 21:01:09 2015
GPGPU-Sim PTX: 11200000 instructions simulated : ctaid=(0,10,0) tid=(195,0,0)
GPGPU-Sim PTX: 11300000 instructions simulated : ctaid=(0,1,0) tid=(223,1,0)
GPGPU-Sim PTX: 11400000 instructions simulated : ctaid=(0,15,0) tid=(196,1,0)
GPGPU-Sim PTX: 11500000 instructions simulated : ctaid=(0,1,0) tid=(214,1,0)
GPGPU-Sim uArch: cycles simulated: 15000  inst.: 10091298 (ipc=672.8) sim_rate=373751 (inst/sec) elapsed = 0:0:00:27 / Tue Mar 10 21:01:10 2015
GPGPU-Sim PTX: 11600000 instructions simulated : ctaid=(0,4,0) tid=(133,0,0)
GPGPU-Sim PTX: 11700000 instructions simulated : ctaid=(0,8,0) tid=(94,1,0)
GPGPU-Sim PTX: 11800000 instructions simulated : ctaid=(0,1,0) tid=(209,1,0)
GPGPU-Sim PTX: 11900000 instructions simulated : ctaid=(0,9,0) tid=(26,0,0)
GPGPU-Sim PTX: 12000000 instructions simulated : ctaid=(0,13,0) tid=(117,1,0)
GPGPU-Sim uArch: cycles simulated: 15500  inst.: 10473317 (ipc=675.7) sim_rate=374047 (inst/sec) elapsed = 0:0:00:28 / Tue Mar 10 21:01:11 2015
GPGPU-Sim PTX: 12100000 instructions simulated : ctaid=(0,29,0) tid=(161,0,0)
GPGPU-Sim PTX: 12200000 instructions simulated : ctaid=(0,10,0) tid=(248,0,0)
GPGPU-Sim PTX: 12300000 instructions simulated : ctaid=(0,6,0) tid=(103,1,0)
GPGPU-Sim PTX: 12400000 instructions simulated : ctaid=(0,13,0) tid=(206,0,0)
GPGPU-Sim uArch: cycles simulated: 16000  inst.: 10855598 (ipc=678.5) sim_rate=374330 (inst/sec) elapsed = 0:0:00:29 / Tue Mar 10 21:01:12 2015
GPGPU-Sim PTX: 12500000 instructions simulated : ctaid=(0,5,0) tid=(174,0,0)
GPGPU-Sim PTX: 12600000 instructions simulated : ctaid=(0,26,0) tid=(180,0,0)
GPGPU-Sim PTX: 12700000 instructions simulated : ctaid=(0,4,0) tid=(251,1,0)
GPGPU-Sim PTX: 12800000 instructions simulated : ctaid=(0,17,0) tid=(44,0,0)
GPGPU-Sim PTX: 12900000 instructions simulated : ctaid=(0,0,0) tid=(67,1,0)
GPGPU-Sim uArch: cycles simulated: 16500  inst.: 11243773 (ipc=681.4) sim_rate=374792 (inst/sec) elapsed = 0:0:00:30 / Tue Mar 10 21:01:13 2015
GPGPU-Sim PTX: 13000000 instructions simulated : ctaid=(0,29,0) tid=(216,0,0)
GPGPU-Sim PTX: 13100000 instructions simulated : ctaid=(0,26,0) tid=(65,1,0)
GPGPU-Sim PTX: 13200000 instructions simulated : ctaid=(0,14,0) tid=(5,0,0)
GPGPU-Sim PTX: 13300000 instructions simulated : ctaid=(0,28,0) tid=(160,1,0)
GPGPU-Sim uArch: cycles simulated: 17000  inst.: 11633670 (ipc=684.3) sim_rate=375279 (inst/sec) elapsed = 0:0:00:31 / Tue Mar 10 21:01:14 2015
GPGPU-Sim PTX: 13400000 instructions simulated : ctaid=(0,9,0) tid=(84,1,0)
GPGPU-Sim PTX: 13500000 instructions simulated : ctaid=(0,1,0) tid=(158,0,0)
GPGPU-Sim PTX: 13600000 instructions simulated : ctaid=(0,15,0) tid=(220,1,0)
GPGPU-Sim PTX: 13700000 instructions simulated : ctaid=(0,4,0) tid=(164,1,0)
GPGPU-Sim PTX: 13800000 instructions simulated : ctaid=(0,29,0) tid=(170,0,0)
GPGPU-Sim uArch: cycles simulated: 17500  inst.: 12015217 (ipc=686.6) sim_rate=375475 (inst/sec) elapsed = 0:0:00:32 / Tue Mar 10 21:01:15 2015
GPGPU-Sim PTX: 13900000 instructions simulated : ctaid=(0,0,0) tid=(11,1,0)
GPGPU-Sim PTX: 14000000 instructions simulated : ctaid=(0,3,0) tid=(206,1,0)
GPGPU-Sim PTX: 14100000 instructions simulated : ctaid=(0,9,0) tid=(93,1,0)
GPGPU-Sim PTX: 14200000 instructions simulated : ctaid=(0,8,0) tid=(234,1,0)
GPGPU-Sim uArch: Shader 1 finished CTA #0 (17987,0), 2 CTAs running
GPGPU-Sim uArch: core:  1, cta: 0 initialized @(17988,0)
GPGPU-Sim uArch: cycles simulated: 18000  inst.: 12399368 (ipc=688.9) sim_rate=375738 (inst/sec) elapsed = 0:0:00:33 / Tue Mar 10 21:01:16 2015
GPGPU-Sim PTX: 14300000 instructions simulated : ctaid=(0,16,0) tid=(67,1,0)
GPGPU-Sim PTX: 14400000 instructions simulated : ctaid=(0,3,0) tid=(33,0,0)
GPGPU-Sim PTX: 14500000 instructions simulated : ctaid=(0,13,0) tid=(30,1,0)
GPGPU-Sim PTX: 14600000 instructions simulated : ctaid=(0,10,0) tid=(229,1,0)
GPGPU-Sim uArch: cycles simulated: 18500  inst.: 12782401 (ipc=690.9) sim_rate=375952 (inst/sec) elapsed = 0:0:00:34 / Tue Mar 10 21:01:17 2015
GPGPU-Sim PTX: 14700000 instructions simulated : ctaid=(0,4,0) tid=(85,0,0)
GPGPU-Sim PTX: 14800000 instructions simulated : ctaid=(0,30,0) tid=(110,0,0)
GPGPU-Sim PTX: 14900000 instructions simulated : ctaid=(0,11,0) tid=(239,0,0)
GPGPU-Sim PTX: 15000000 instructions simulated : ctaid=(0,9,0) tid=(12,1,0)
GPGPU-Sim PTX: 15100000 instructions simulated : ctaid=(0,2,0) tid=(103,0,0)
GPGPU-Sim uArch: cycles simulated: 19000  inst.: 13165764 (ipc=692.9) sim_rate=365715 (inst/sec) elapsed = 0:0:00:36 / Tue Mar 10 21:01:19 2015
GPGPU-Sim PTX: 15200000 instructions simulated : ctaid=(0,14,0) tid=(190,1,0)
GPGPU-Sim PTX: 15300000 instructions simulated : ctaid=(0,39,0) tid=(137,1,0)
GPGPU-Sim PTX: 15400000 instructions simulated : ctaid=(0,23,0) tid=(60,1,0)
GPGPU-Sim PTX: 15500000 instructions simulated : ctaid=(0,19,0) tid=(245,1,0)
GPGPU-Sim uArch: cycles simulated: 19500  inst.: 13543849 (ipc=694.6) sim_rate=366049 (inst/sec) elapsed = 0:0:00:37 / Tue Mar 10 21:01:20 2015
GPGPU-Sim PTX: 15600000 instructions simulated : ctaid=(0,1,0) tid=(171,0,0)
GPGPU-Sim PTX: 15700000 instructions simulated : ctaid=(0,30,0) tid=(70,1,0)
GPGPU-Sim PTX: 15800000 instructions simulated : ctaid=(0,14,0) tid=(8,1,0)
GPGPU-Sim PTX: 15900000 instructions simulated : ctaid=(0,8,0) tid=(144,1,0)
GPGPU-Sim uArch: cycles simulated: 20000  inst.: 13900300 (ipc=695.0) sim_rate=365797 (inst/sec) elapsed = 0:0:00:38 / Tue Mar 10 21:01:21 2015
GPGPU-Sim PTX: 16000000 instructions simulated : ctaid=(0,23,0) tid=(239,1,0)
GPGPU-Sim PTX: 16100000 instructions simulated : ctaid=(0,4,0) tid=(202,0,0)
GPGPU-Sim PTX: 16200000 instructions simulated : ctaid=(0,3,0) tid=(60,1,0)
GPGPU-Sim PTX: 16300000 instructions simulated : ctaid=(0,14,0) tid=(183,1,0)
GPGPU-Sim uArch: cycles simulated: 20500  inst.: 14259132 (ipc=695.6) sim_rate=365618 (inst/sec) elapsed = 0:0:00:39 / Tue Mar 10 21:01:22 2015
GPGPU-Sim PTX: 16400000 instructions simulated : ctaid=(0,9,0) tid=(180,0,0)
GPGPU-Sim PTX: 16500000 instructions simulated : ctaid=(0,3,0) tid=(134,1,0)
GPGPU-Sim PTX: 16600000 instructions simulated : ctaid=(0,10,0) tid=(70,0,0)
GPGPU-Sim PTX: 16700000 instructions simulated : ctaid=(0,10,0) tid=(141,0,0)
GPGPU-Sim PTX: 16800000 instructions simulated : ctaid=(0,12,0) tid=(175,0,0)
GPGPU-Sim uArch: cycles simulated: 21000  inst.: 14636148 (ipc=697.0) sim_rate=365903 (inst/sec) elapsed = 0:0:00:40 / Tue Mar 10 21:01:23 2015
GPGPU-Sim PTX: 16900000 instructions simulated : ctaid=(0,3,0) tid=(224,1,0)
GPGPU-Sim PTX: 17000000 instructions simulated : ctaid=(0,11,0) tid=(186,0,0)
GPGPU-Sim PTX: 17100000 instructions simulated : ctaid=(0,4,0) tid=(167,1,0)
GPGPU-Sim PTX: 17200000 instructions simulated : ctaid=(0,11,0) tid=(195,0,0)
GPGPU-Sim uArch: Shader 2 finished CTA #0 (21455,0), 2 CTAs running
GPGPU-Sim uArch: core:  2, cta: 0 initialized @(21456,0)
GPGPU-Sim uArch: cycles simulated: 21500  inst.: 15013804 (ipc=698.3) sim_rate=366190 (inst/sec) elapsed = 0:0:00:41 / Tue Mar 10 21:01:24 2015
GPGPU-Sim PTX: 17300000 instructions simulated : ctaid=(0,14,0) tid=(73,1,0)
GPGPU-Sim PTX: 17400000 instructions simulated : ctaid=(0,41,0) tid=(185,0,0)
GPGPU-Sim PTX: 17500000 instructions simulated : ctaid=(0,14,0) tid=(63,0,0)
GPGPU-Sim PTX: 17600000 instructions simulated : ctaid=(0,8,0) tid=(19,0,0)
GPGPU-Sim PTX: 17700000 instructions simulated : ctaid=(0,11,0) tid=(182,1,0)
GPGPU-Sim uArch: cycles simulated: 22000  inst.: 15398536 (ipc=699.9) sim_rate=366631 (inst/sec) elapsed = 0:0:00:42 / Tue Mar 10 21:01:25 2015
GPGPU-Sim PTX: 17800000 instructions simulated : ctaid=(0,39,0) tid=(166,0,0)
GPGPU-Sim PTX: 17900000 instructions simulated : ctaid=(0,18,0) tid=(168,0,0)
GPGPU-Sim PTX: 18000000 instructions simulated : ctaid=(0,11,0) tid=(152,0,0)
GPGPU-Sim PTX: 18100000 instructions simulated : ctaid=(0,28,0) tid=(199,1,0)
GPGPU-Sim uArch: cycles simulated: 22500  inst.: 15783979 (ipc=701.5) sim_rate=367069 (inst/sec) elapsed = 0:0:00:43 / Tue Mar 10 21:01:26 2015
GPGPU-Sim PTX: 18200000 instructions simulated : ctaid=(0,18,0) tid=(186,0,0)
GPGPU-Sim PTX: 18300000 instructions simulated : ctaid=(0,23,0) tid=(27,0,0)
GPGPU-Sim PTX: 18400000 instructions simulated : ctaid=(0,29,0) tid=(180,1,0)
GPGPU-Sim PTX: 18500000 instructions simulated : ctaid=(0,3,0) tid=(121,0,0)
GPGPU-Sim uArch: cycles simulated: 23000  inst.: 16135541 (ipc=701.5) sim_rate=366716 (inst/sec) elapsed = 0:0:00:44 / Tue Mar 10 21:01:27 2015
GPGPU-Sim PTX: 18600000 instructions simulated : ctaid=(0,9,0) tid=(211,0,0)
GPGPU-Sim PTX: 18700000 instructions simulated : ctaid=(0,14,0) tid=(166,1,0)
GPGPU-Sim PTX: 18800000 instructions simulated : ctaid=(0,13,0) tid=(51,1,0)
GPGPU-Sim PTX: 18900000 instructions simulated : ctaid=(0,18,0) tid=(111,0,0)
GPGPU-Sim uArch: cycles simulated: 23500  inst.: 16521208 (ipc=703.0) sim_rate=367137 (inst/sec) elapsed = 0:0:00:45 / Tue Mar 10 21:01:28 2015
GPGPU-Sim PTX: 19000000 instructions simulated : ctaid=(0,17,0) tid=(149,1,0)
GPGPU-Sim PTX: 19100000 instructions simulated : ctaid=(0,3,0) tid=(83,0,0)
GPGPU-Sim PTX: 19200000 instructions simulated : ctaid=(0,19,0) tid=(177,0,0)
GPGPU-Sim PTX: 19300000 instructions simulated : ctaid=(0,21,0) tid=(98,0,0)
GPGPU-Sim PTX: 19400000 instructions simulated : ctaid=(0,8,0) tid=(7,1,0)
GPGPU-Sim uArch: cycles simulated: 24000  inst.: 16904377 (ipc=704.3) sim_rate=367486 (inst/sec) elapsed = 0:0:00:46 / Tue Mar 10 21:01:29 2015
GPGPU-Sim PTX: 19500000 instructions simulated : ctaid=(0,9,0) tid=(66,1,0)
GPGPU-Sim PTX: 19600000 instructions simulated : ctaid=(0,9,0) tid=(183,1,0)
GPGPU-Sim PTX: 19700000 instructions simulated : ctaid=(0,31,0) tid=(73,0,0)
GPGPU-Sim PTX: 19800000 instructions simulated : ctaid=(0,3,0) tid=(148,1,0)
GPGPU-Sim uArch: cycles simulated: 24500  inst.: 17287086 (ipc=705.6) sim_rate=367810 (inst/sec) elapsed = 0:0:00:47 / Tue Mar 10 21:01:30 2015
GPGPU-Sim PTX: 19900000 instructions simulated : ctaid=(0,9,0) tid=(154,0,0)
GPGPU-Sim PTX: 20000000 instructions simulated : ctaid=(0,15,0) tid=(205,1,0)
GPGPU-Sim PTX: 20100000 instructions simulated : ctaid=(0,12,0) tid=(208,0,0)
GPGPU-Sim PTX: 20200000 instructions simulated : ctaid=(0,7,0) tid=(86,0,0)
GPGPU-Sim PTX: 20300000 instructions simulated : ctaid=(0,12,0) tid=(57,0,0)
GPGPU-Sim uArch: cycles simulated: 25000  inst.: 17667465 (ipc=706.7) sim_rate=360560 (inst/sec) elapsed = 0:0:00:49 / Tue Mar 10 21:01:32 2015
GPGPU-Sim PTX: 20400000 instructions simulated : ctaid=(0,14,0) tid=(84,0,0)
GPGPU-Sim PTX: 20500000 instructions simulated : ctaid=(0,7,0) tid=(15,1,0)
GPGPU-Sim PTX: 20600000 instructions simulated : ctaid=(0,13,0) tid=(61,1,0)
GPGPU-Sim PTX: 20700000 instructions simulated : ctaid=(0,17,0) tid=(102,1,0)
GPGPU-Sim uArch: cycles simulated: 25500  inst.: 18043391 (ipc=707.6) sim_rate=360867 (inst/sec) elapsed = 0:0:00:50 / Tue Mar 10 21:01:33 2015
GPGPU-Sim PTX: 20800000 instructions simulated : ctaid=(0,22,0) tid=(95,0,0)
GPGPU-Sim uArch: Shader 3 finished CTA #0 (25599,0), 2 CTAs running
GPGPU-Sim uArch: core:  3, cta: 0 initialized @(25600,0)
GPGPU-Sim PTX: 20900000 instructions simulated : ctaid=(0,18,0) tid=(127,0,0)
GPGPU-Sim PTX: 21000000 instructions simulated : ctaid=(0,8,0) tid=(170,1,0)
GPGPU-Sim PTX: 21100000 instructions simulated : ctaid=(0,19,0) tid=(181,1,0)
GPGPU-Sim uArch: cycles simulated: 26000  inst.: 18408776 (ipc=708.0) sim_rate=360956 (inst/sec) elapsed = 0:0:00:51 / Tue Mar 10 21:01:34 2015
GPGPU-Sim PTX: 21200000 instructions simulated : ctaid=(0,15,0) tid=(245,1,0)
GPGPU-Sim PTX: 21300000 instructions simulated : ctaid=(0,28,0) tid=(79,0,0)
GPGPU-Sim PTX: 21400000 instructions simulated : ctaid=(0,23,0) tid=(251,0,0)
GPGPU-Sim PTX: 21500000 instructions simulated : ctaid=(0,9,0) tid=(68,1,0)
GPGPU-Sim PTX: 21600000 instructions simulated : ctaid=(0,9,0) tid=(16,0,0)
GPGPU-Sim uArch: cycles simulated: 26500  inst.: 18792338 (ipc=709.1) sim_rate=361391 (inst/sec) elapsed = 0:0:00:52 / Tue Mar 10 21:01:35 2015
GPGPU-Sim PTX: 21700000 instructions simulated : ctaid=(0,32,0) tid=(136,0,0)
GPGPU-Sim PTX: 21800000 instructions simulated : ctaid=(0,11,0) tid=(113,1,0)
GPGPU-Sim PTX: 21900000 instructions simulated : ctaid=(0,11,0) tid=(36,1,0)
GPGPU-Sim PTX: 22000000 instructions simulated : ctaid=(0,7,0) tid=(61,1,0)
GPGPU-Sim uArch: cycles simulated: 27000  inst.: 19172755 (ipc=710.1) sim_rate=361750 (inst/sec) elapsed = 0:0:00:53 / Tue Mar 10 21:01:36 2015
GPGPU-Sim PTX: 22100000 instructions simulated : ctaid=(0,24,0) tid=(169,0,0)
GPGPU-Sim PTX: 22200000 instructions simulated : ctaid=(0,13,0) tid=(153,0,0)
GPGPU-Sim PTX: 22300000 instructions simulated : ctaid=(0,7,0) tid=(34,1,0)
GPGPU-Sim PTX: 22400000 instructions simulated : ctaid=(0,5,0) tid=(249,0,0)
GPGPU-Sim uArch: cycles simulated: 27500  inst.: 19557165 (ipc=711.2) sim_rate=362169 (inst/sec) elapsed = 0:0:00:54 / Tue Mar 10 21:01:37 2015
GPGPU-Sim PTX: 22500000 instructions simulated : ctaid=(0,11,0) tid=(9,1,0)
GPGPU-Sim PTX: 22600000 instructions simulated : ctaid=(0,21,0) tid=(31,1,0)
GPGPU-Sim PTX: 22700000 instructions simulated : ctaid=(0,13,0) tid=(215,0,0)
GPGPU-Sim PTX: 22800000 instructions simulated : ctaid=(0,4,0) tid=(44,1,0)
GPGPU-Sim PTX: 22900000 instructions simulated : ctaid=(0,18,0) tid=(177,1,0)
GPGPU-Sim uArch: cycles simulated: 28000  inst.: 19939381 (ipc=712.1) sim_rate=362534 (inst/sec) elapsed = 0:0:00:55 / Tue Mar 10 21:01:38 2015
GPGPU-Sim PTX: 23000000 instructions simulated : ctaid=(0,15,0) tid=(139,0,0)
GPGPU-Sim PTX: 23100000 instructions simulated : ctaid=(0,17,0) tid=(211,1,0)
GPGPU-Sim PTX: 23200000 instructions simulated : ctaid=(0,15,0) tid=(99,1,0)
GPGPU-Sim PTX: 23300000 instructions simulated : ctaid=(0,6,0) tid=(74,0,0)
GPGPU-Sim uArch: cycles simulated: 28500  inst.: 20315534 (ipc=712.8) sim_rate=362777 (inst/sec) elapsed = 0:0:00:56 / Tue Mar 10 21:01:39 2015
GPGPU-Sim PTX: 23400000 instructions simulated : ctaid=(0,19,0) tid=(149,1,0)
GPGPU-Sim PTX: 23500000 instructions simulated : ctaid=(0,13,0) tid=(39,1,0)
GPGPU-Sim PTX: 23600000 instructions simulated : ctaid=(0,8,0) tid=(174,0,0)
GPGPU-Sim PTX: 23700000 instructions simulated : ctaid=(0,30,0) tid=(86,0,0)
GPGPU-Sim uArch: cycles simulated: 29000  inst.: 20674364 (ipc=712.9) sim_rate=356454 (inst/sec) elapsed = 0:0:00:58 / Tue Mar 10 21:01:41 2015
GPGPU-Sim PTX: 23800000 instructions simulated : ctaid=(0,32,0) tid=(79,0,0)
GPGPU-Sim PTX: 23900000 instructions simulated : ctaid=(0,13,0) tid=(228,1,0)
GPGPU-Sim PTX: 24000000 instructions simulated : ctaid=(0,17,0) tid=(39,1,0)
GPGPU-Sim PTX: 24100000 instructions simulated : ctaid=(0,16,0) tid=(29,1,0)
GPGPU-Sim uArch: Shader 4 finished CTA #0 (29517,0), 2 CTAs running
GPGPU-Sim uArch: core:  4, cta: 0 initialized @(29518,0)
GPGPU-Sim PTX: 24200000 instructions simulated : ctaid=(0,12,0) tid=(167,0,0)
GPGPU-Sim PTX: 24300000 instructions simulated : ctaid=(0,43,0) tid=(168,1,0)
GPGPU-Sim uArch: Shader 10 finished CTA #0 (29841,0), 2 CTAs running
GPGPU-Sim uArch: core: 10, cta: 0 initialized @(29842,0)
GPGPU-Sim uArch: Shader 8 finished CTA #0 (29872,0), 2 CTAs running
GPGPU-Sim uArch: core:  8, cta: 0 initialized @(29873,0)
GPGPU-Sim uArch: Shader 5 finished CTA #0 (29916,0), 2 CTAs running
GPGPU-Sim uArch: core:  5, cta: 0 initialized @(29917,0)
GPGPU-Sim PTX: 24400000 instructions simulated : ctaid=(0,15,0) tid=(107,0,0)
GPGPU-Sim uArch: cycles simulated: 30000  inst.: 21245907 (ipc=708.2) sim_rate=360100 (inst/sec) elapsed = 0:0:00:59 / Tue Mar 10 21:01:42 2015
GPGPU-Sim PTX: 24500000 instructions simulated : ctaid=(0,30,0) tid=(53,0,0)
GPGPU-Sim uArch: Shader 14 finished CTA #0 (30188,0), 2 CTAs running
GPGPU-Sim uArch: core: 14, cta: 0 initialized @(30189,0)
GPGPU-Sim uArch: Shader 0 finished CTA #0 (30238,0), 2 CTAs running
GPGPU-Sim uArch: core:  0, cta: 0 initialized @(30239,0)
GPGPU-Sim PTX: 24600000 instructions simulated : ctaid=(0,44,0) tid=(229,1,0)
GPGPU-Sim uArch: Shader 11 finished CTA #0 (30306,0), 2 CTAs running
GPGPU-Sim uArch: core: 11, cta: 0 initialized @(30307,0)
GPGPU-Sim uArch: Shader 13 finished CTA #0 (30425,0), 2 CTAs running
GPGPU-Sim uArch: core: 13, cta: 0 initialized @(30426,0)
GPGPU-Sim PTX: 24700000 instructions simulated : ctaid=(0,21,0) tid=(52,1,0)
GPGPU-Sim uArch: Shader 7 finished CTA #0 (30459,0), 2 CTAs running
GPGPU-Sim uArch: core:  7, cta: 0 initialized @(30460,0)
GPGPU-Sim uArch: Shader 6 finished CTA #0 (30485,0), 2 CTAs running
GPGPU-Sim uArch: core:  6, cta: 0 initialized @(30486,0)
GPGPU-Sim uArch: cycles simulated: 30500  inst.: 21540868 (ipc=706.3) sim_rate=359014 (inst/sec) elapsed = 0:0:01:00 / Tue Mar 10 21:01:43 2015
GPGPU-Sim uArch: Shader 9 finished CTA #0 (30506,0), 2 CTAs running
GPGPU-Sim uArch: core:  9, cta: 0 initialized @(30507,0)
GPGPU-Sim uArch: Shader 12 finished CTA #0 (30541,0), 2 CTAs running
GPGPU-Sim uArch: core: 12, cta: 0 initialized @(30542,0)
GPGPU-Sim PTX: 24800000 instructions simulated : ctaid=(0,16,0) tid=(147,0,0)
GPGPU-Sim PTX: 24900000 instructions simulated : ctaid=(0,15,0) tid=(214,0,0)
GPGPU-Sim PTX: 25000000 instructions simulated : ctaid=(0,49,0) tid=(111,1,0)
GPGPU-Sim PTX: 25100000 instructions simulated : ctaid=(0,40,0) tid=(248,1,0)
GPGPU-Sim uArch: cycles simulated: 31000  inst.: 21908318 (ipc=706.7) sim_rate=353359 (inst/sec) elapsed = 0:0:01:02 / Tue Mar 10 21:01:45 2015
GPGPU-Sim PTX: 25200000 instructions simulated : ctaid=(0,29,0) tid=(70,1,0)
GPGPU-Sim PTX: 25300000 instructions simulated : ctaid=(0,15,0) tid=(119,0,0)
GPGPU-Sim PTX: 25400000 instructions simulated : ctaid=(0,19,0) tid=(122,0,0)
GPGPU-Sim PTX: 25500000 instructions simulated : ctaid=(0,17,0) tid=(114,1,0)
GPGPU-Sim PTX: 25600000 instructions simulated : ctaid=(0,16,0) tid=(36,1,0)
GPGPU-Sim uArch: cycles simulated: 31500  inst.: 22295269 (ipc=707.8) sim_rate=353893 (inst/sec) elapsed = 0:0:01:03 / Tue Mar 10 21:01:46 2015
GPGPU-Sim PTX: 25700000 instructions simulated : ctaid=(0,27,0) tid=(188,0,0)
GPGPU-Sim PTX: 25800000 instructions simulated : ctaid=(0,17,0) tid=(151,1,0)
GPGPU-Sim PTX: 25900000 instructions simulated : ctaid=(0,19,0) tid=(208,1,0)
GPGPU-Sim PTX: 26000000 instructions simulated : ctaid=(0,22,0) tid=(153,1,0)
GPGPU-Sim uArch: cycles simulated: 32000  inst.: 22681887 (ipc=708.8) sim_rate=354404 (inst/sec) elapsed = 0:0:01:04 / Tue Mar 10 21:01:47 2015
GPGPU-Sim PTX: 26100000 instructions simulated : ctaid=(0,27,0) tid=(95,1,0)
GPGPU-Sim PTX: 26200000 instructions simulated : ctaid=(0,15,0) tid=(231,1,0)
GPGPU-Sim PTX: 26300000 instructions simulated : ctaid=(0,26,0) tid=(125,0,0)
GPGPU-Sim PTX: 26400000 instructions simulated : ctaid=(0,36,0) tid=(15,1,0)
GPGPU-Sim PTX: 26500000 instructions simulated : ctaid=(0,18,0) tid=(7,0,0)
GPGPU-Sim uArch: cycles simulated: 32500  inst.: 23068983 (ipc=709.8) sim_rate=354907 (inst/sec) elapsed = 0:0:01:05 / Tue Mar 10 21:01:48 2015
GPGPU-Sim PTX: 26600000 instructions simulated : ctaid=(0,18,0) tid=(121,1,0)
GPGPU-Sim PTX: 26700000 instructions simulated : ctaid=(0,23,0) tid=(210,0,0)
GPGPU-Sim PTX: 26800000 instructions simulated : ctaid=(0,26,0) tid=(187,1,0)
GPGPU-Sim PTX: 26900000 instructions simulated : ctaid=(0,16,0) tid=(87,0,0)
GPGPU-Sim uArch: cycles simulated: 33000  inst.: 23457612 (ipc=710.8) sim_rate=355418 (inst/sec) elapsed = 0:0:01:06 / Tue Mar 10 21:01:49 2015
GPGPU-Sim PTX: 27000000 instructions simulated : ctaid=(0,21,0) tid=(107,1,0)
GPGPU-Sim PTX: 27100000 instructions simulated : ctaid=(0,27,0) tid=(121,1,0)
GPGPU-Sim PTX: 27200000 instructions simulated : ctaid=(0,34,0) tid=(137,1,0)
GPGPU-Sim PTX: 27300000 instructions simulated : ctaid=(0,54,0) tid=(202,1,0)
GPGPU-Sim PTX: 27400000 instructions simulated : ctaid=(0,20,0) tid=(106,0,0)
GPGPU-Sim PTX: 27500000 instructions simulated : ctaid=(0,16,0) tid=(249,1,0)
GPGPU-Sim PTX: 27600000 instructions simulated : ctaid=(0,15,0) tid=(70,0,0)
GPGPU-Sim PTX: 27700000 instructions simulated : ctaid=(0,26,0) tid=(194,1,0)
GPGPU-Sim PTX: 27800000 instructions simulated : ctaid=(0,26,0) tid=(3,1,0)
GPGPU-Sim uArch: cycles simulated: 34000  inst.: 24216503 (ipc=712.3) sim_rate=361440 (inst/sec) elapsed = 0:0:01:07 / Tue Mar 10 21:01:50 2015
GPGPU-Sim PTX: 27900000 instructions simulated : ctaid=(0,16,0) tid=(171,0,0)
GPGPU-Sim PTX: 28000000 instructions simulated : ctaid=(0,18,0) tid=(251,1,0)
GPGPU-Sim PTX: 28100000 instructions simulated : ctaid=(0,24,0) tid=(76,1,0)
GPGPU-Sim PTX: 28200000 instructions simulated : ctaid=(0,26,0) tid=(218,0,0)
GPGPU-Sim uArch: cycles simulated: 34500  inst.: 24604647 (ipc=713.2) sim_rate=361833 (inst/sec) elapsed = 0:0:01:08 / Tue Mar 10 21:01:51 2015
GPGPU-Sim PTX: 28300000 instructions simulated : ctaid=(0,16,0) tid=(29,1,0)
GPGPU-Sim PTX: 28400000 instructions simulated : ctaid=(0,40,0) tid=(48,0,0)
GPGPU-Sim PTX: 28500000 instructions simulated : ctaid=(0,29,0) tid=(54,0,0)
GPGPU-Sim PTX: 28600000 instructions simulated : ctaid=(0,17,0) tid=(224,0,0)
GPGPU-Sim PTX: 28700000 instructions simulated : ctaid=(0,47,0) tid=(145,0,0)
GPGPU-Sim uArch: cycles simulated: 35000  inst.: 24989793 (ipc=714.0) sim_rate=362170 (inst/sec) elapsed = 0:0:01:09 / Tue Mar 10 21:01:52 2015
GPGPU-Sim PTX: 28800000 instructions simulated : ctaid=(0,26,0) tid=(118,0,0)
GPGPU-Sim PTX: 28900000 instructions simulated : ctaid=(0,23,0) tid=(229,0,0)
GPGPU-Sim PTX: 29000000 instructions simulated : ctaid=(0,17,0) tid=(54,1,0)
GPGPU-Sim PTX: 29100000 instructions simulated : ctaid=(0,20,0) tid=(20,0,0)
GPGPU-Sim uArch: cycles simulated: 35500  inst.: 25374066 (ipc=714.8) sim_rate=362486 (inst/sec) elapsed = 0:0:01:10 / Tue Mar 10 21:01:53 2015
GPGPU-Sim PTX: 29200000 instructions simulated : ctaid=(0,24,0) tid=(60,0,0)
GPGPU-Sim PTX: 29300000 instructions simulated : ctaid=(0,21,0) tid=(67,0,0)
GPGPU-Sim PTX: 29400000 instructions simulated : ctaid=(0,22,0) tid=(157,1,0)
GPGPU-Sim PTX: 29500000 instructions simulated : ctaid=(0,41,0) tid=(149,0,0)
GPGPU-Sim PTX: 29600000 instructions simulated : ctaid=(0,19,0) tid=(132,0,0)
GPGPU-Sim uArch: cycles simulated: 36000  inst.: 25758084 (ipc=715.5) sim_rate=362789 (inst/sec) elapsed = 0:0:01:11 / Tue Mar 10 21:01:54 2015
GPGPU-Sim PTX: 29700000 instructions simulated : ctaid=(0,40,0) tid=(208,0,0)
GPGPU-Sim PTX: 29800000 instructions simulated : ctaid=(0,39,0) tid=(12,1,0)
GPGPU-Sim uArch: Shader 1 finished CTA #1 (36235,0), 2 CTAs running
GPGPU-Sim uArch: core:  1, cta: 1 initialized @(36236,0)
GPGPU-Sim PTX: 29900000 instructions simulated : ctaid=(0,20,0) tid=(111,1,0)
GPGPU-Sim PTX: 30000000 instructions simulated : ctaid=(0,16,0) tid=(231,1,0)
GPGPU-Sim uArch: cycles simulated: 36500  inst.: 26139782 (ipc=716.2) sim_rate=363052 (inst/sec) elapsed = 0:0:01:12 / Tue Mar 10 21:01:55 2015
GPGPU-Sim PTX: 30100000 instructions simulated : ctaid=(0,21,0) tid=(214,1,0)
GPGPU-Sim PTX: 30200000 instructions simulated : ctaid=(0,50,0) tid=(195,0,0)
GPGPU-Sim PTX: 30300000 instructions simulated : ctaid=(0,16,0) tid=(133,0,0)
GPGPU-Sim PTX: 30400000 instructions simulated : ctaid=(0,19,0) tid=(252,1,0)
GPGPU-Sim uArch: cycles simulated: 37000  inst.: 26524530 (ipc=716.9) sim_rate=363349 (inst/sec) elapsed = 0:0:01:13 / Tue Mar 10 21:01:56 2015
GPGPU-Sim PTX: 30500000 instructions simulated : ctaid=(0,18,0) tid=(176,0,0)
GPGPU-Sim PTX: 30600000 instructions simulated : ctaid=(0,59,0) tid=(245,1,0)
GPGPU-Sim PTX: 30700000 instructions simulated : ctaid=(0,29,0) tid=(75,0,0)
GPGPU-Sim PTX: 30800000 instructions simulated : ctaid=(0,25,0) tid=(118,1,0)
GPGPU-Sim PTX: 30900000 instructions simulated : ctaid=(0,29,0) tid=(121,0,0)
GPGPU-Sim uArch: cycles simulated: 37500  inst.: 26905000 (ipc=717.5) sim_rate=363581 (inst/sec) elapsed = 0:0:01:14 / Tue Mar 10 21:01:57 2015
GPGPU-Sim PTX: 31000000 instructions simulated : ctaid=(0,23,0) tid=(107,0,0)
GPGPU-Sim PTX: 31100000 instructions simulated : ctaid=(0,28,0) tid=(47,0,0)
GPGPU-Sim PTX: 31200000 instructions simulated : ctaid=(0,37,0) tid=(2,1,0)
GPGPU-Sim PTX: 31300000 instructions simulated : ctaid=(0,43,0) tid=(138,1,0)
GPGPU-Sim uArch: cycles simulated: 38000  inst.: 27291673 (ipc=718.2) sim_rate=359100 (inst/sec) elapsed = 0:0:01:16 / Tue Mar 10 21:01:59 2015
GPGPU-Sim PTX: 31400000 instructions simulated : ctaid=(0,27,0) tid=(199,0,0)
GPGPU-Sim PTX: 31500000 instructions simulated : ctaid=(0,30,0) tid=(154,1,0)
GPGPU-Sim PTX: 31600000 instructions simulated : ctaid=(0,36,0) tid=(230,0,0)
GPGPU-Sim PTX: 31700000 instructions simulated : ctaid=(0,44,0) tid=(89,1,0)
GPGPU-Sim PTX: 31800000 instructions simulated : ctaid=(0,45,0) tid=(128,1,0)
GPGPU-Sim PTX: 31900000 instructions simulated : ctaid=(0,28,0) tid=(115,0,0)
GPGPU-Sim PTX: 32000000 instructions simulated : ctaid=(0,19,0) tid=(81,1,0)
GPGPU-Sim PTX: 32100000 instructions simulated : ctaid=(0,22,0) tid=(60,0,0)
GPGPU-Sim PTX: 32200000 instructions simulated : ctaid=(0,20,0) tid=(136,0,0)
GPGPU-Sim uArch: cycles simulated: 39000  inst.: 28052615 (ipc=719.3) sim_rate=364319 (inst/sec) elapsed = 0:0:01:17 / Tue Mar 10 21:02:00 2015
GPGPU-Sim PTX: 32300000 instructions simulated : ctaid=(0,19,0) tid=(198,1,0)
GPGPU-Sim PTX: 32400000 instructions simulated : ctaid=(0,17,0) tid=(105,0,0)
GPGPU-Sim PTX: 32500000 instructions simulated : ctaid=(0,38,0) tid=(196,1,0)
GPGPU-Sim PTX: 32600000 instructions simulated : ctaid=(0,24,0) tid=(190,1,0)
GPGPU-Sim PTX: 32700000 instructions simulated : ctaid=(0,25,0) tid=(219,1,0)
GPGPU-Sim uArch: cycles simulated: 39500  inst.: 28431830 (ipc=719.8) sim_rate=364510 (inst/sec) elapsed = 0:0:01:18 / Tue Mar 10 21:02:01 2015
GPGPU-Sim uArch: Shader 2 finished CTA #1 (39522,0), 2 CTAs running
GPGPU-Sim uArch: core:  2, cta: 1 initialized @(39523,0)
GPGPU-Sim PTX: 32800000 instructions simulated : ctaid=(0,39,0) tid=(128,1,0)
GPGPU-Sim PTX: 32900000 instructions simulated : ctaid=(0,54,0) tid=(233,0,0)
GPGPU-Sim PTX: 33000000 instructions simulated : ctaid=(0,50,0) tid=(47,1,0)
GPGPU-Sim uArch: cycles simulated: 40000  inst.: 28768884 (ipc=719.2) sim_rate=364163 (inst/sec) elapsed = 0:0:01:19 / Tue Mar 10 21:02:02 2015
GPGPU-Sim PTX: 33100000 instructions simulated : ctaid=(0,27,0) tid=(36,0,0)
GPGPU-Sim PTX: 33200000 instructions simulated : ctaid=(0,23,0) tid=(107,1,0)
GPGPU-Sim PTX: 33300000 instructions simulated : ctaid=(0,20,0) tid=(33,1,0)
GPGPU-Sim PTX: 33400000 instructions simulated : ctaid=(0,26,0) tid=(173,0,0)
GPGPU-Sim PTX: 33500000 instructions simulated : ctaid=(0,29,0) tid=(59,1,0)
GPGPU-Sim uArch: cycles simulated: 40500  inst.: 29152477 (ipc=719.8) sim_rate=364405 (inst/sec) elapsed = 0:0:01:20 / Tue Mar 10 21:02:03 2015
GPGPU-Sim PTX: 33600000 instructions simulated : ctaid=(0,25,0) tid=(127,1,0)
GPGPU-Sim PTX: 33700000 instructions simulated : ctaid=(0,51,0) tid=(105,1,0)
GPGPU-Sim PTX: 33800000 instructions simulated : ctaid=(0,19,0) tid=(140,0,0)
GPGPU-Sim PTX: 33900000 instructions simulated : ctaid=(0,17,0) tid=(189,0,0)
GPGPU-Sim uArch: cycles simulated: 41000  inst.: 29533387 (ipc=720.3) sim_rate=364609 (inst/sec) elapsed = 0:0:01:21 / Tue Mar 10 21:02:04 2015
GPGPU-Sim PTX: 34000000 instructions simulated : ctaid=(0,19,0) tid=(102,0,0)
GPGPU-Sim PTX: 34100000 instructions simulated : ctaid=(0,59,0) tid=(36,0,0)
GPGPU-Sim PTX: 34200000 instructions simulated : ctaid=(0,21,0) tid=(20,1,0)
GPGPU-Sim PTX: 34300000 instructions simulated : ctaid=(0,28,0) tid=(198,1,0)
GPGPU-Sim PTX: 34400000 instructions simulated : ctaid=(0,43,0) tid=(50,0,0)
GPGPU-Sim uArch: cycles simulated: 41500  inst.: 29917557 (ipc=720.9) sim_rate=364848 (inst/sec) elapsed = 0:0:01:22 / Tue Mar 10 21:02:05 2015
GPGPU-Sim PTX: 34500000 instructions simulated : ctaid=(0,30,0) tid=(102,0,0)
GPGPU-Sim PTX: 34600000 instructions simulated : ctaid=(0,22,0) tid=(164,0,0)
GPGPU-Sim PTX: 34700000 instructions simulated : ctaid=(0,19,0) tid=(217,1,0)
GPGPU-Sim PTX: 34800000 instructions simulated : ctaid=(0,25,0) tid=(136,0,0)
GPGPU-Sim uArch: cycles simulated: 42000  inst.: 30304224 (ipc=721.5) sim_rate=365111 (inst/sec) elapsed = 0:0:01:23 / Tue Mar 10 21:02:06 2015
GPGPU-Sim PTX: 34900000 instructions simulated : ctaid=(0,33,0) tid=(149,1,0)
GPGPU-Sim PTX: 35000000 instructions simulated : ctaid=(0,23,0) tid=(130,0,0)
GPGPU-Sim PTX: 35100000 instructions simulated : ctaid=(0,30,0) tid=(203,1,0)
GPGPU-Sim PTX: 35200000 instructions simulated : ctaid=(0,45,0) tid=(151,1,0)
GPGPU-Sim PTX: 35300000 instructions simulated : ctaid=(0,19,0) tid=(98,0,0)
GPGPU-Sim uArch: cycles simulated: 42500  inst.: 30694382 (ipc=722.2) sim_rate=365409 (inst/sec) elapsed = 0:0:01:24 / Tue Mar 10 21:02:07 2015
GPGPU-Sim PTX: 35400000 instructions simulated : ctaid=(0,30,0) tid=(253,1,0)
GPGPU-Sim PTX: 35500000 instructions simulated : ctaid=(0,24,0) tid=(203,1,0)
GPGPU-Sim uArch: Shader 3 finished CTA #1 (42797,0), 2 CTAs running
GPGPU-Sim uArch: core:  3, cta: 1 initialized @(42798,0)
GPGPU-Sim PTX: 35600000 instructions simulated : ctaid=(0,20,0) tid=(163,1,0)
GPGPU-Sim PTX: 35700000 instructions simulated : ctaid=(0,61,0) tid=(113,1,0)
GPGPU-Sim uArch: cycles simulated: 43000  inst.: 31080194 (ipc=722.8) sim_rate=365649 (inst/sec) elapsed = 0:0:01:25 / Tue Mar 10 21:02:08 2015
GPGPU-Sim PTX: 35800000 instructions simulated : ctaid=(0,38,0) tid=(252,0,0)
GPGPU-Sim PTX: 35900000 instructions simulated : ctaid=(0,24,0) tid=(220,1,0)
GPGPU-Sim PTX: 36000000 instructions simulated : ctaid=(0,32,0) tid=(151,1,0)
GPGPU-Sim PTX: 36100000 instructions simulated : ctaid=(0,20,0) tid=(113,0,0)
GPGPU-Sim PTX: 36200000 instructions simulated : ctaid=(0,33,0) tid=(110,0,0)
GPGPU-Sim uArch: cycles simulated: 43500  inst.: 31461981 (ipc=723.3) sim_rate=365836 (inst/sec) elapsed = 0:0:01:26 / Tue Mar 10 21:02:09 2015
GPGPU-Sim PTX: 36300000 instructions simulated : ctaid=(0,45,0) tid=(66,0,0)
GPGPU-Sim PTX: 36400000 instructions simulated : ctaid=(0,20,0) tid=(57,0,0)
GPGPU-Sim PTX: 36500000 instructions simulated : ctaid=(0,49,0) tid=(27,1,0)
GPGPU-Sim PTX: 36600000 instructions simulated : ctaid=(0,18,0) tid=(115,0,0)
GPGPU-Sim uArch: cycles simulated: 44000  inst.: 31840859 (ipc=723.7) sim_rate=365986 (inst/sec) elapsed = 0:0:01:27 / Tue Mar 10 21:02:10 2015
GPGPU-Sim PTX: 36700000 instructions simulated : ctaid=(0,37,0) tid=(37,1,0)
GPGPU-Sim PTX: 36800000 instructions simulated : ctaid=(0,22,0) tid=(205,1,0)
GPGPU-Sim PTX: 36900000 instructions simulated : ctaid=(0,25,0) tid=(27,1,0)
GPGPU-Sim PTX: 37000000 instructions simulated : ctaid=(0,33,0) tid=(84,1,0)
GPGPU-Sim uArch: cycles simulated: 44500  inst.: 32228405 (ipc=724.2) sim_rate=366231 (inst/sec) elapsed = 0:0:01:28 / Tue Mar 10 21:02:11 2015
GPGPU-Sim PTX: 37100000 instructions simulated : ctaid=(0,22,0) tid=(152,0,0)
GPGPU-Sim PTX: 37200000 instructions simulated : ctaid=(0,32,0) tid=(25,0,0)
GPGPU-Sim PTX: 37300000 instructions simulated : ctaid=(0,26,0) tid=(115,1,0)
GPGPU-Sim PTX: 37400000 instructions simulated : ctaid=(0,32,0) tid=(138,0,0)
GPGPU-Sim PTX: 37500000 instructions simulated : ctaid=(0,21,0) tid=(204,1,0)
GPGPU-Sim uArch: cycles simulated: 45000  inst.: 32614044 (ipc=724.8) sim_rate=366449 (inst/sec) elapsed = 0:0:01:29 / Tue Mar 10 21:02:12 2015
GPGPU-Sim PTX: 37600000 instructions simulated : ctaid=(0,21,0) tid=(204,1,0)
GPGPU-Sim PTX: 37700000 instructions simulated : ctaid=(0,20,0) tid=(67,0,0)
GPGPU-Sim PTX: 37800000 instructions simulated : ctaid=(0,30,0) tid=(75,0,0)
GPGPU-Sim PTX: 37900000 instructions simulated : ctaid=(0,23,0) tid=(178,0,0)
GPGPU-Sim uArch: cycles simulated: 45500  inst.: 32999294 (ipc=725.3) sim_rate=366658 (inst/sec) elapsed = 0:0:01:30 / Tue Mar 10 21:02:13 2015
GPGPU-Sim PTX: 38000000 instructions simulated : ctaid=(0,26,0) tid=(237,1,0)
GPGPU-Sim uArch: Shader 4 finished CTA #1 (45621,0), 2 CTAs running
GPGPU-Sim uArch: core:  4, cta: 1 initialized @(45622,0)
GPGPU-Sim PTX: 38100000 instructions simulated : ctaid=(0,32,0) tid=(135,1,0)
GPGPU-Sim PTX: 38200000 instructions simulated : ctaid=(0,25,0) tid=(134,1,0)
GPGPU-Sim PTX: 38300000 instructions simulated : ctaid=(0,44,0) tid=(173,0,0)
GPGPU-Sim PTX: 38400000 instructions simulated : ctaid=(0,35,0) tid=(126,0,0)
GPGPU-Sim uArch: cycles simulated: 46000  inst.: 33383217 (ipc=725.7) sim_rate=366848 (inst/sec) elapsed = 0:0:01:31 / Tue Mar 10 21:02:14 2015
GPGPU-Sim PTX: 38500000 instructions simulated : ctaid=(0,63,0) tid=(7,1,0)
GPGPU-Sim PTX: 38600000 instructions simulated : ctaid=(0,38,0) tid=(68,1,0)
GPGPU-Sim PTX: 38700000 instructions simulated : ctaid=(0,40,0) tid=(39,1,0)
GPGPU-Sim PTX: 38800000 instructions simulated : ctaid=(0,48,0) tid=(23,1,0)
GPGPU-Sim uArch: cycles simulated: 46500  inst.: 33771858 (ipc=726.3) sim_rate=367085 (inst/sec) elapsed = 0:0:01:32 / Tue Mar 10 21:02:15 2015
GPGPU-Sim PTX: 38900000 instructions simulated : ctaid=(0,35,0) tid=(155,1,0)
GPGPU-Sim PTX: 39000000 instructions simulated : ctaid=(0,31,0) tid=(168,1,0)
GPGPU-Sim PTX: 39100000 instructions simulated : ctaid=(0,36,0) tid=(40,1,0)
GPGPU-Sim PTX: 39200000 instructions simulated : ctaid=(0,31,0) tid=(99,0,0)
GPGPU-Sim PTX: 39300000 instructions simulated : ctaid=(0,52,0) tid=(193,0,0)
GPGPU-Sim uArch: cycles simulated: 47000  inst.: 34159687 (ipc=726.8) sim_rate=367308 (inst/sec) elapsed = 0:0:01:33 / Tue Mar 10 21:02:16 2015
GPGPU-Sim uArch: Shader 6 finished CTA #1 (47035,0), 2 CTAs running
GPGPU-Sim uArch: core:  6, cta: 1 initialized @(47036,0)
GPGPU-Sim PTX: 39400000 instructions simulated : ctaid=(0,55,0) tid=(235,0,0)
GPGPU-Sim PTX: 39500000 instructions simulated : ctaid=(0,30,0) tid=(238,0,0)
GPGPU-Sim uArch: Shader 0 finished CTA #1 (47225,0), 2 CTAs running
GPGPU-Sim uArch: core:  0, cta: 1 initialized @(47226,0)
GPGPU-Sim uArch: Shader 5 finished CTA #1 (47315,0), 2 CTAs running
GPGPU-Sim uArch: core:  5, cta: 1 initialized @(47316,0)
GPGPU-Sim PTX: 39600000 instructions simulated : ctaid=(0,47,0) tid=(17,0,0)
GPGPU-Sim uArch: Shader 9 finished CTA #1 (47324,0), 2 CTAs running
GPGPU-Sim uArch: core:  9, cta: 1 initialized @(47325,0)
GPGPU-Sim uArch: Shader 13 finished CTA #1 (47340,0), 2 CTAs running
GPGPU-Sim uArch: core: 13, cta: 1 initialized @(47341,0)
GPGPU-Sim uArch: Shader 14 finished CTA #1 (47370,0), 2 CTAs running
GPGPU-Sim uArch: core: 14, cta: 1 initialized @(47371,0)
GPGPU-Sim uArch: Shader 8 finished CTA #1 (47417,0), 2 CTAs running
GPGPU-Sim uArch: core:  8, cta: 1 initialized @(47418,0)
GPGPU-Sim PTX: 39700000 instructions simulated : ctaid=(0,58,0) tid=(108,1,0)
GPGPU-Sim uArch: Shader 11 finished CTA #1 (47466,0), 2 CTAs running
GPGPU-Sim uArch: core: 11, cta: 1 initialized @(47467,0)
GPGPU-Sim uArch: cycles simulated: 47500  inst.: 34545240 (ipc=727.3) sim_rate=367502 (inst/sec) elapsed = 0:0:01:34 / Tue Mar 10 21:02:17 2015
GPGPU-Sim uArch: Shader 7 finished CTA #1 (47502,0), 2 CTAs running
GPGPU-Sim uArch: core:  7, cta: 1 initialized @(47503,0)
GPGPU-Sim PTX: 39800000 instructions simulated : ctaid=(0,68,0) tid=(109,1,0)
GPGPU-Sim uArch: Shader 10 finished CTA #1 (47608,0), 2 CTAs running
GPGPU-Sim uArch: core: 10, cta: 1 initialized @(47609,0)
GPGPU-Sim uArch: Shader 12 finished CTA #1 (47621,0), 2 CTAs running
GPGPU-Sim uArch: core: 12, cta: 1 initialized @(47622,0)
GPGPU-Sim PTX: 39900000 instructions simulated : ctaid=(0,43,0) tid=(34,1,0)
GPGPU-Sim PTX: 40000000 instructions simulated : ctaid=(0,49,0) tid=(154,1,0)
GPGPU-Sim PTX: 40100000 instructions simulated : ctaid=(0,39,0) tid=(81,1,0)
GPGPU-Sim uArch: cycles simulated: 48000  inst.: 34915183 (ipc=727.4) sim_rate=367528 (inst/sec) elapsed = 0:0:01:35 / Tue Mar 10 21:02:18 2015
GPGPU-Sim PTX: 40200000 instructions simulated : ctaid=(0,32,0) tid=(171,0,0)
GPGPU-Sim PTX: 40300000 instructions simulated : ctaid=(0,59,0) tid=(104,1,0)
GPGPU-Sim PTX: 40400000 instructions simulated : ctaid=(0,57,0) tid=(179,0,0)
GPGPU-Sim PTX: 40500000 instructions simulated : ctaid=(0,66,0) tid=(55,0,0)
GPGPU-Sim uArch: cycles simulated: 48500  inst.: 35270492 (ipc=727.2) sim_rate=367400 (inst/sec) elapsed = 0:0:01:36 / Tue Mar 10 21:02:19 2015
GPGPU-Sim PTX: 40600000 instructions simulated : ctaid=(0,69,0) tid=(106,0,0)
GPGPU-Sim PTX: 40700000 instructions simulated : ctaid=(0,71,0) tid=(131,0,0)
GPGPU-Sim PTX: 40800000 instructions simulated : ctaid=(0,74,0) tid=(36,0,0)
GPGPU-Sim PTX: 40900000 instructions simulated : ctaid=(0,38,0) tid=(59,1,0)
GPGPU-Sim PTX: 41000000 instructions simulated : ctaid=(0,38,0) tid=(75,0,0)
GPGPU-Sim uArch: cycles simulated: 49000  inst.: 35659615 (ipc=727.7) sim_rate=367624 (inst/sec) elapsed = 0:0:01:37 / Tue Mar 10 21:02:20 2015
GPGPU-Sim PTX: 41100000 instructions simulated : ctaid=(0,58,0) tid=(209,1,0)
GPGPU-Sim PTX: 41200000 instructions simulated : ctaid=(0,32,0) tid=(226,0,0)
GPGPU-Sim PTX: 41300000 instructions simulated : ctaid=(0,61,0) tid=(204,0,0)
GPGPU-Sim PTX: 41400000 instructions simulated : ctaid=(0,42,0) tid=(18,0,0)
GPGPU-Sim uArch: cycles simulated: 49500  inst.: 36040622 (ipc=728.1) sim_rate=367761 (inst/sec) elapsed = 0:0:01:38 / Tue Mar 10 21:02:21 2015
GPGPU-Sim PTX: 41500000 instructions simulated : ctaid=(0,41,0) tid=(252,0,0)
GPGPU-Sim PTX: 41600000 instructions simulated : ctaid=(0,46,0) tid=(123,0,0)
GPGPU-Sim PTX: 41700000 instructions simulated : ctaid=(0,61,0) tid=(129,0,0)
GPGPU-Sim PTX: 41800000 instructions simulated : ctaid=(0,46,0) tid=(206,0,0)
GPGPU-Sim PTX: 41900000 instructions simulated : ctaid=(0,41,0) tid=(123,0,0)
GPGPU-Sim uArch: cycles simulated: 50000  inst.: 36422874 (ipc=728.5) sim_rate=367907 (inst/sec) elapsed = 0:0:01:39 / Tue Mar 10 21:02:22 2015
GPGPU-Sim PTX: 42000000 instructions simulated : ctaid=(0,36,0) tid=(210,0,0)
GPGPU-Sim PTX: 42100000 instructions simulated : ctaid=(0,45,0) tid=(228,1,0)
GPGPU-Sim PTX: 42200000 instructions simulated : ctaid=(0,33,0) tid=(73,0,0)
GPGPU-Sim PTX: 42300000 instructions simulated : ctaid=(0,37,0) tid=(54,1,0)
GPGPU-Sim uArch: cycles simulated: 50500  inst.: 36798349 (ipc=728.7) sim_rate=367983 (inst/sec) elapsed = 0:0:01:40 / Tue Mar 10 21:02:23 2015
GPGPU-Sim PTX: 42400000 instructions simulated : ctaid=(0,42,0) tid=(100,0,0)
GPGPU-Sim PTX: 42500000 instructions simulated : ctaid=(0,30,0) tid=(60,0,0)
GPGPU-Sim PTX: 42600000 instructions simulated : ctaid=(0,43,0) tid=(1,0,0)
GPGPU-Sim PTX: 42700000 instructions simulated : ctaid=(0,37,0) tid=(172,0,0)
GPGPU-Sim uArch: cycles simulated: 51000  inst.: 37175534 (ipc=728.9) sim_rate=368074 (inst/sec) elapsed = 0:0:01:41 / Tue Mar 10 21:02:24 2015
GPGPU-Sim PTX: 42800000 instructions simulated : ctaid=(0,44,0) tid=(85,1,0)
GPGPU-Sim PTX: 42900000 instructions simulated : ctaid=(0,46,0) tid=(152,1,0)
GPGPU-Sim PTX: 43000000 instructions simulated : ctaid=(0,37,0) tid=(208,1,0)
GPGPU-Sim PTX: 43100000 instructions simulated : ctaid=(0,36,0) tid=(245,1,0)
GPGPU-Sim uArch: cycles simulated: 51500  inst.: 37483030 (ipc=727.8) sim_rate=367480 (inst/sec) elapsed = 0:0:01:42 / Tue Mar 10 21:02:25 2015
GPGPU-Sim PTX: 43200000 instructions simulated : ctaid=(0,34,0) tid=(122,1,0)
GPGPU-Sim PTX: 43300000 instructions simulated : ctaid=(0,57,0) tid=(245,1,0)
GPGPU-Sim PTX: 43400000 instructions simulated : ctaid=(0,30,0) tid=(190,1,0)
GPGPU-Sim PTX: 43500000 instructions simulated : ctaid=(0,35,0) tid=(198,0,0)
GPGPU-Sim uArch: cycles simulated: 52000  inst.: 37810473 (ipc=727.1) sim_rate=367091 (inst/sec) elapsed = 0:0:01:43 / Tue Mar 10 21:02:26 2015
GPGPU-Sim PTX: 43600000 instructions simulated : ctaid=(0,44,0) tid=(105,0,0)
GPGPU-Sim PTX: 43700000 instructions simulated : ctaid=(0,37,0) tid=(127,1,0)
GPGPU-Sim PTX: 43800000 instructions simulated : ctaid=(0,40,0) tid=(111,0,0)
GPGPU-Sim PTX: 43900000 instructions simulated : ctaid=(0,43,0) tid=(11,1,0)
GPGPU-Sim uArch: cycles simulated: 52500  inst.: 38179617 (ipc=727.2) sim_rate=367111 (inst/sec) elapsed = 0:0:01:44 / Tue Mar 10 21:02:27 2015
GPGPU-Sim PTX: 44000000 instructions simulated : ctaid=(0,40,0) tid=(90,1,0)
GPGPU-Sim PTX: 44100000 instructions simulated : ctaid=(0,34,0) tid=(149,1,0)
GPGPU-Sim PTX: 44200000 instructions simulated : ctaid=(0,40,0) tid=(92,0,0)
GPGPU-Sim PTX: 44300000 instructions simulated : ctaid=(0,34,0) tid=(158,0,0)
GPGPU-Sim uArch: cycles simulated: 53000  inst.: 38565158 (ipc=727.6) sim_rate=367287 (inst/sec) elapsed = 0:0:01:45 / Tue Mar 10 21:02:28 2015
GPGPU-Sim PTX: 44400000 instructions simulated : ctaid=(0,32,0) tid=(127,1,0)
GPGPU-Sim PTX: 44500000 instructions simulated : ctaid=(0,36,0) tid=(134,1,0)
GPGPU-Sim PTX: 44600000 instructions simulated : ctaid=(0,48,0) tid=(234,0,0)
GPGPU-Sim PTX: 44700000 instructions simulated : ctaid=(0,48,0) tid=(75,0,0)
GPGPU-Sim PTX: 44800000 instructions simulated : ctaid=(0,41,0) tid=(40,1,0)
GPGPU-Sim uArch: Shader 1 finished CTA #2 (53481,0), 2 CTAs running
GPGPU-Sim uArch: core:  1, cta: 2 initialized @(53482,0)
GPGPU-Sim uArch: cycles simulated: 53500  inst.: 38952992 (ipc=728.1) sim_rate=367481 (inst/sec) elapsed = 0:0:01:46 / Tue Mar 10 21:02:29 2015
GPGPU-Sim PTX: 44900000 instructions simulated : ctaid=(0,62,0) tid=(92,1,0)
GPGPU-Sim PTX: 45000000 instructions simulated : ctaid=(0,43,0) tid=(186,0,0)
GPGPU-Sim PTX: 45100000 instructions simulated : ctaid=(0,59,0) tid=(108,0,0)
GPGPU-Sim PTX: 45200000 instructions simulated : ctaid=(0,41,0) tid=(7,1,0)
GPGPU-Sim uArch: cycles simulated: 54000  inst.: 39341282 (ipc=728.5) sim_rate=367675 (inst/sec) elapsed = 0:0:01:47 / Tue Mar 10 21:02:30 2015
GPGPU-Sim PTX: 45300000 instructions simulated : ctaid=(0,60,0) tid=(128,1,0)
GPGPU-Sim PTX: 45400000 instructions simulated : ctaid=(0,33,0) tid=(237,1,0)
GPGPU-Sim PTX: 45500000 instructions simulated : ctaid=(0,49,0) tid=(48,0,0)
GPGPU-Sim PTX: 45600000 instructions simulated : ctaid=(0,42,0) tid=(34,1,0)
GPGPU-Sim PTX: 45700000 instructions simulated : ctaid=(0,36,0) tid=(81,1,0)
GPGPU-Sim uArch: cycles simulated: 54500  inst.: 39723260 (ipc=728.9) sim_rate=367807 (inst/sec) elapsed = 0:0:01:48 / Tue Mar 10 21:02:31 2015
GPGPU-Sim PTX: 45800000 instructions simulated : ctaid=(0,33,0) tid=(209,0,0)
GPGPU-Sim PTX: 45900000 instructions simulated : ctaid=(0,48,0) tid=(111,0,0)
GPGPU-Sim PTX: 46000000 instructions simulated : ctaid=(0,75,0) tid=(128,1,0)
GPGPU-Sim PTX: 46100000 instructions simulated : ctaid=(0,50,0) tid=(244,1,0)
GPGPU-Sim uArch: cycles simulated: 55000  inst.: 40111513 (ipc=729.3) sim_rate=367995 (inst/sec) elapsed = 0:0:01:49 / Tue Mar 10 21:02:32 2015
GPGPU-Sim PTX: 46200000 instructions simulated : ctaid=(0,42,0) tid=(200,0,0)
GPGPU-Sim PTX: 46300000 instructions simulated : ctaid=(0,52,0) tid=(38,1,0)
GPGPU-Sim PTX: 46400000 instructions simulated : ctaid=(0,41,0) tid=(63,1,0)
GPGPU-Sim PTX: 46500000 instructions simulated : ctaid=(0,35,0) tid=(76,0,0)
GPGPU-Sim PTX: 46600000 instructions simulated : ctaid=(0,48,0) tid=(30,0,0)
[...]
diff(251,11) CPU=64.0000, GPU=48.0000 
diff(252,11) CPU=64.0000, GPU=48.0000 
diff(253,11) CPU=64.0000, GPU=48.0000 
diff(254,11) CPU=64.0000, GPU=48.0000 
diff(255,11) CPU=64.0000, GPU=48.0000 
diff(0,12) CPU=8.0000, GPU=7.0000 
diff(1,12) CPU=16.0000, GPU=14.0000 
diff(2,12) CPU=24.0000, GPU=21.0000 
diff(3,12) CPU=32.0000, GPU=28.0000 
diff(4,12) CPU=40.0000, GPU=35.0000 
diff(5,12) CPU=48.0000, GPU=42.0000 
diff(6,12) CPU=56.0000, GPU=49.0000 
diff(7,12) CPU=64.0000, GPU=56.0000 
diff(8,12) CPU=64.0000, GPU=56.0000 
diff(9,12) CPU=64.0000, GPU=56.0000 
diff(10,12) CPU=64.0000, GPU=56.0000 
diff(11,12) CPU=64.0000, GPU=56.0000 
diff(12,12) CPU=64.0000, GPU=56.0000 
diff(13,12) CPU=64.0000, GPU=56.0000 
diff(14,12) CPU=64.0000, GPU=56.0000 
diff(15,12) CPU=64.0000, GPU=56.0000 
diff(16,12) CPU=64.0000, GPU=56.0000 
diff(17,12) CPU=64.0000, GPU=56.0000 
diff(18,12) CPU=64.0000, GPU=56.0000 
diff(19,12) CPU=64.0000, GPU=56.0000 
diff(20,12) CPU=64.0000, GPU=56.0000 
diff(21,12) CPU=64.0000, GPU=56.0000 
diff(22,12) CPU=64.0000, GPU=56.0000 
diff(23,12) CPU=64.0000, GPU=56.0000 
diff(24,12) CPU=64.0000, GPU=56.0000 
diff(25,12) CPU=64.0000, GPU=56.0000 
diff(26,12) CPU=64.0000, GPU=56.0000 
diff(27,12) CPU=64.0000, GPU=56.0000 
diff(28,12) CPU=64.0000, GPU=56.0000 
diff(29,12) CPU=64.0000, GPU=56.0000 
diff(30,12) CPU=64.0000, GPU=56.0000 
diff(31,12) CPU=64.0000, GPU=56.0000 
diff(32,12) CPU=64.0000, GPU=56.0000 
diff(33,12) CPU=64.0000, GPU=56.0000 
diff(34,12) CPU=64.0000, GPU=56.0000 
diff(35,12) CPU=64.0000, GPU=56.0000 
diff(36,12) CPU=64.0000, GPU=56.0000 
diff(37,12) CPU=64.0000, GPU=56.0000 
diff(38,12) CPU=64.0000, GPU=56.0000 
diff(39,12) CPU=64.0000, GPU=56.0000 
diff(40,12) CPU=64.0000, GPU=56.0000 
diff(41,12) CPU=64.0000, GPU=56.0000 
diff(42,12) CPU=64.0000, GPU=56.0000 
diff(43,12) CPU=64.0000, GPU=56.0000 
diff(44,12) CPU=64.0000, GPU=56.0000 
diff(45,12) CPU=64.0000, GPU=56.0000 
diff(46,12) CPU=64.0000, GPU=56.0000 
diff(47,12) CPU=64.0000, GPU=56.0000 
diff(48,12) CPU=64.0000, GPU=56.0000 
diff(49,12) CPU=64.0000, GPU=56.0000 
diff(50,12) CPU=64.0000, GPU=56.0000 
diff(51,12) CPU=64.0000, GPU=56.0000 
diff(52,12) CPU=64.0000, GPU=56.0000 
diff(53,12) CPU=64.0000, GPU=56.0000 
diff(54,12) CPU=64.0000, GPU=56.0000 
diff(55,12) CPU=64.0000, GPU=56.0000 
diff(56,12) CPU=64.0000, GPU=56.0000 
diff(57,12) CPU=64.0000, GPU=56.0000 
diff(58,12) CPU=64.0000, GPU=56.0000 
diff(59,12) CPU=64.0000, GPU=56.0000 
diff(60,12) CPU=64.0000, GPU=56.0000 
diff(61,12) CPU=64.0000, GPU=56.0000 
diff(62,12) CPU=64.0000, GPU=56.0000 
diff(63,12) CPU=64.0000, GPU=56.0000 
diff(64,12) CPU=64.0000, GPU=56.0000 
diff(65,12) CPU=64.0000, GPU=56.0000 
diff(66,12) CPU=64.0000, GPU=56.0000 
diff(67,12) CPU=64.0000, GPU=56.0000 
diff(68,12) CPU=64.0000, GPU=56.0000 
diff(69,12) CPU=64.0000, GPU=56.0000 
diff(70,12) CPU=64.0000, GPU=56.0000 
diff(71,12) CPU=64.0000, GPU=56.0000 
diff(72,12) CPU=64.0000, GPU=56.0000 
diff(73,12) CPU=64.0000, GPU=56.0000 
diff(74,12) CPU=64.0000, GPU=56.0000 
diff(75,12) CPU=64.0000, GPU=56.0000 
diff(76,12) CPU=64.0000, GPU=56.0000 
diff(77,12) CPU=64.0000, GPU=56.0000 
diff(78,12) CPU=64.0000, GPU=56.0000 
diff(79,12) CPU=64.0000, GPU=56.0000 
diff(80,12) CPU=64.0000, GPU=56.0000 
diff(81,12) CPU=64.0000, GPU=56.0000 
diff(82,12) CPU=64.0000, GPU=56.0000 
diff(83,12) CPU=64.0000, GPU=56.0000 
diff(84,12) CPU=64.0000, GPU=56.0000 
diff(85,12) CPU=64.0000, GPU=56.0000 
diff(86,12) CPU=64.0000, GPU=56.0000 
diff(87,12) CPU=64.0000, GPU=56.0000 
diff(88,12) CPU=64.0000, GPU=56.0000 
diff(89,12) CPU=64.0000, GPU=56.0000 
diff(90,12) CPU=64.0000, GPU=56.0000 
diff(91,12) CPU=64.0000, GPU=56.0000 
diff(92,12) CPU=64.0000, GPU=56.0000 
diff(93,12) CPU=64.0000, GPU=56.0000 
diff(94,12) CPU=64.0000, GPU=56.0000 
diff(95,12) CPU=64.0000, GPU=56.0000 
diff(96,12) CPU=64.0000, GPU=56.0000 
diff(97,12) CPU=64.0000, GPU=56.0000 
diff(98,12) CPU=64.0000, GPU=56.0000 
diff(99,12) CPU=64.0000, GPU=56.0000 
diff(100,12) CPU=64.0000, GPU=56.0000 
diff(101,12) CPU=64.0000, GPU=56.0000 
diff(102,12) CPU=64.0000, GPU=56.0000 
diff(103,12) CPU=64.0000, GPU=56.0000 
diff(104,12) CPU=64.0000, GPU=56.0000 
diff(105,12) CPU=64.0000, GPU=56.0000 
diff(106,12) CPU=64.0000, GPU=56.0000 
diff(107,12) CPU=64.0000, GPU=56.0000 
diff(108,12) CPU=64.0000, GPU=56.0000 
diff(109,12) CPU=64.0000, GPU=56.0000 
diff(110,12) CPU=64.0000, GPU=56.0000 
diff(111,12) CPU=64.0000, GPU=56.0000 
diff(112,12) CPU=64.0000, GPU=56.0000 
diff(113,12) CPU=64.0000, GPU=56.0000 
diff(114,12) CPU=64.0000, GPU=56.0000 
diff(115,12) CPU=64.0000, GPU=56.0000 
diff(116,12) CPU=64.0000, GPU=56.0000 
diff(117,12) CPU=64.0000, GPU=56.0000 
diff(118,12) CPU=64.0000, GPU=56.0000 
diff(119,12) CPU=64.0000, GPU=56.0000 
diff(120,12) CPU=64.0000, GPU=56.0000 
diff(121,12) CPU=64.0000, GPU=56.0000 
diff(122,12) CPU=64.0000, GPU=56.0000 
diff(123,12) CPU=64.0000, GPU=56.0000 
diff(124,12) CPU=64.0000, GPU=56.0000 
diff(125,12) CPU=64.0000, GPU=56.0000 
diff(126,12) CPU=64.0000, GPU=56.0000 
diff(127,12) CPU=64.0000, GPU=56.0000 
diff(128,12) CPU=64.0000, GPU=56.0000 
diff(129,12) CPU=64.0000, GPU=56.0000 
diff(130,12) CPU=64.0000, GPU=56.0000 
diff(131,12) CPU=64.0000, GPU=56.0000 
diff(132,12) CPU=64.0000, GPU=56.0000 
diff(133,12) CPU=64.0000, GPU=56.0000 
diff(134,12) CPU=64.0000, GPU=56.0000 
diff(135,12) CPU=64.0000, GPU=56.0000 
diff(136,12) CPU=64.0000, GPU=56.0000 
diff(137,12) CPU=64.0000, GPU=56.0000 
diff(138,12) CPU=64.0000, GPU=56.0000 
diff(139,12) CPU=64.0000, GPU=56.0000 
diff(140,12) CPU=64.0000, GPU=56.0000 
diff(141,12) CPU=64.0000, GPU=56.0000 
diff(142,12) CPU=64.0000, GPU=56.0000 
diff(143,12) CPU=64.0000, GPU=56.0000 
diff(144,12) CPU=64.0000, GPU=56.0000 
diff(145,12) CPU=64.0000, GPU=56.0000 
diff(146,12) CPU=64.0000, GPU=56.0000 
diff(147,12) CPU=64.0000, GPU=56.0000 
diff(148,12) CPU=64.0000, GPU=56.0000 
diff(149,12) CPU=64.0000, GPU=56.0000 
diff(150,12) CPU=64.0000, GPU=56.0000 
diff(151,12) CPU=64.0000, GPU=56.0000 
diff(152,12) CPU=64.0000, GPU=56.0000 
diff(153,12) CPU=64.0000, GPU=56.0000 
diff(154,12) CPU=64.0000, GPU=56.0000 
diff(155,12) CPU=64.0000, GPU=56.0000 
diff(156,12) CPU=64.0000, GPU=56.0000 
diff(157,12) CPU=64.0000, GPU=56.0000 
diff(158,12) CPU=64.0000, GPU=56.0000 
diff(159,12) CPU=64.0000, GPU=56.0000 
diff(160,12) CPU=64.0000, GPU=56.0000 
diff(161,12) CPU=64.0000, GPU=56.0000 
diff(162,12) CPU=64.0000, GPU=56.0000 
diff(163,12) CPU=64.0000, GPU=56.0000 
diff(164,12) CPU=64.0000, GPU=56.0000 
diff(165,12) CPU=64.0000, GPU=56.0000 
diff(166,12) CPU=64.0000, GPU=56.0000 
diff(167,12) CPU=64.0000, GPU=56.0000 
diff(168,12) CPU=64.0000, GPU=56.0000 
diff(169,12) CPU=64.0000, GPU=56.0000 
diff(170,12) CPU=64.0000, GPU=56.0000 
diff(171,12) CPU=64.0000, GPU=56.0000 
diff(172,12) CPU=64.0000, GPU=56.0000 
diff(173,12) CPU=64.0000, GPU=56.0000 
diff(174,12) CPU=64.0000, GPU=56.0000 
diff(175,12) CPU=64.0000, GPU=56.0000 
diff(176,12) CPU=64.0000, GPU=56.0000 
diff(177,12) CPU=64.0000, GPU=56.0000 
diff(178,12) CPU=64.0000, GPU=56.0000 
diff(179,12) CPU=64.0000, GPU=56.0000 
diff(180,12) CPU=64.0000, GPU=56.0000 
diff(181,12) CPU=64.0000, GPU=56.0000 
diff(182,12) CPU=64.0000, GPU=56.0000 
diff(183,12) CPU=64.0000, GPU=56.0000 
diff(184,12) CPU=64.0000, GPU=56.0000 
diff(185,12) CPU=64.0000, GPU=56.0000 
diff(186,12) CPU=64.0000, GPU=56.0000 
diff(187,12) CPU=64.0000, GPU=56.0000 
diff(188,12) CPU=64.0000, GPU=56.0000 
diff(189,12) CPU=64.0000, GPU=56.0000 
diff(190,12) CPU=64.0000, GPU=56.0000 
diff(191,12) CPU=64.0000, GPU=56.0000 
diff(192,12) CPU=64.0000, GPU=56.0000 
diff(193,12) CPU=64.0000, GPU=56.0000 
diff(194,12) CPU=64.0000, GPU=56.0000 
diff(195,12) CPU=64.0000, GPU=56.0000 
diff(196,12) CPU=64.0000, GPU=56.0000 
diff(197,12) CPU=64.0000, GPU=56.0000 
diff(198,12) CPU=64.0000, GPU=56.0000 
diff(199,12) CPU=64.0000, GPU=56.0000 
diff(200,12) CPU=64.0000, GPU=56.0000 
diff(201,12) CPU=64.0000, GPU=56.0000 
diff(202,12) CPU=64.0000, GPU=56.0000 
diff(203,12) CPU=64.0000, GPU=56.0000 
diff(204,12) CPU=64.0000, GPU=56.0000 
diff(205,12) CPU=64.0000, GPU=56.0000 
diff(206,12) CPU=64.0000, GPU=56.0000 
diff(207,12) CPU=64.0000, GPU=56.0000 
diff(208,12) CPU=64.0000, GPU=56.0000 
diff(209,12) CPU=64.0000, GPU=56.0000 
diff(210,12) CPU=64.0000, GPU=56.0000 
diff(211,12) CPU=64.0000, GPU=56.0000 
diff(212,12) CPU=64.0000, GPU=56.0000 
diff(213,12) CPU=64.0000, GPU=56.0000 
diff(214,12) CPU=64.0000, GPU=56.0000 
diff(215,12) CPU=64.0000, GPU=56.0000 
diff(216,12) CPU=64.0000, GPU=56.0000 
diff(217,12) CPU=64.0000, GPU=56.0000 
diff(218,12) CPU=64.0000, GPU=56.0000 
diff(219,12) CPU=64.0000, GPU=56.0000 
diff(220,12) CPU=64.0000, GPU=56.0000 
diff(221,12) CPU=64.0000, GPU=56.0000 
diff(222,12) CPU=64.0000, GPU=56.0000 
diff(223,12) CPU=64.0000, GPU=56.0000 
diff(224,12) CPU=64.0000, GPU=56.0000 
diff(225,12) CPU=64.0000, GPU=56.0000 
diff(226,12) CPU=64.0000, GPU=56.0000 
diff(227,12) CPU=64.0000, GPU=56.0000 
diff(228,12) CPU=64.0000, GPU=56.0000 
diff(229,12) CPU=64.0000, GPU=56.0000 
diff(230,12) CPU=64.0000, GPU=56.0000 
diff(231,12) CPU=64.0000, GPU=56.0000 
diff(232,12) CPU=64.0000, GPU=56.0000 
diff(233,12) CPU=64.0000, GPU=56.0000 
diff(234,12) CPU=64.0000, GPU=56.0000 
diff(235,12) CPU=64.0000, GPU=56.0000 
diff(236,12) CPU=64.0000, GPU=56.0000 
diff(237,12) CPU=64.0000, GPU=56.0000 
diff(238,12) CPU=64.0000, GPU=56.0000 
diff(239,12) CPU=64.0000, GPU=56.0000 
diff(240,12) CPU=64.0000, GPU=56.0000 
diff(241,12) CPU=64.0000, GPU=56.0000 
diff(242,12) CPU=64.0000, GPU=56.0000 
diff(243,12) CPU=64.0000, GPU=56.0000 
diff(244,12) CPU=64.0000, GPU=56.0000 
diff(245,12) CPU=64.0000, GPU=56.0000 
diff(246,12) CPU=64.0000, GPU=56.0000 
diff(247,12) CPU=64.0000, GPU=56.0000 
diff(248,12) CPU=64.0000, GPU=56.0000 
diff(249,12) CPU=64.0000, GPU=56.0000 
diff(250,12) CPU=64.0000, GPU=56.0000 
diff(251,12) CPU=64.0000, GPU=56.0000 
diff(252,12) CPU=64.0000, GPU=56.0000 
diff(253,12) CPU=64.0000, GPU=56.0000 
diff(254,12) CPU=64.0000, GPU=56.0000 
diff(255,12) CPU=64.0000, GPU=56.0000 
diff(0,13) CPU=8.0000, GPU=7.0000 
diff(1,13) CPU=16.0000, GPU=14.0000 
diff(2,13) CPU=24.0000, GPU=21.0000 
diff(3,13) CPU=32.0000, GPU=28.0000 
diff(4,13) CPU=40.0000, GPU=35.0000 
diff(5,13) CPU=48.0000, GPU=42.0000 
diff(6,13) CPU=56.0000, GPU=49.0000 
diff(7,13) CPU=64.0000, GPU=56.0000 
diff(8,13) CPU=64.0000, GPU=56.0000 
diff(9,13) CPU=64.0000, GPU=56.0000 
diff(10,13) CPU=64.0000, GPU=56.0000 
diff(11,13) CPU=64.0000, GPU=56.0000 
diff(12,13) CPU=64.0000, GPU=56.0000 
diff(13,13) CPU=64.0000, GPU=56.0000 
diff(14,13) CPU=64.0000, GPU=56.0000 
diff(15,13) CPU=64.0000, GPU=56.0000 
diff(16,13) CPU=64.0000, GPU=56.0000 
diff(17,13) CPU=64.0000, GPU=56.0000 
diff(18,13) CPU=64.0000, GPU=56.0000 
diff(19,13) CPU=64.0000, GPU=56.0000 
diff(20,13) CPU=64.0000, GPU=56.0000 
diff(21,13) CPU=64.0000, GPU=56.0000 
diff(22,13) CPU=64.0000, GPU=56.0000 
diff(23,13) CPU=64.0000, GPU=56.0000 
diff(24,13) CPU=64.0000, GPU=56.0000 
diff(25,13) CPU=64.0000, GPU=56.0000 
diff(26,13) CPU=64.0000, GPU=56.0000 
diff(27,13) CPU=64.0000, GPU=56.0000 
diff(28,13) CPU=64.0000, GPU=56.0000 
diff(29,13) CPU=64.0000, GPU=56.0000 
diff(30,13) CPU=64.0000, GPU=56.0000 
diff(31,13) CPU=64.0000, GPU=56.0000 
diff(32,13) CPU=64.0000, GPU=56.0000 
diff(33,13) CPU=64.0000, GPU=56.0000 
diff(34,13) CPU=64.0000, GPU=56.0000 
diff(35,13) CPU=64.0000, GPU=56.0000 
diff(36,13) CPU=64.0000, GPU=56.0000 
diff(37,13) CPU=64.0000, GPU=56.0000 
diff(38,13) CPU=64.0000, GPU=56.0000 
diff(39,13) CPU=64.0000, GPU=56.0000 
diff(40,13) CPU=64.0000, GPU=56.0000 
diff(41,13) CPU=64.0000, GPU=56.0000 
diff(42,13) CPU=64.0000, GPU=56.0000 
diff(43,13) CPU=64.0000, GPU=56.0000 
diff(44,13) CPU=64.0000, GPU=56.0000 
diff(45,13) CPU=64.0000, GPU=56.0000 
diff(46,13) CPU=64.0000, GPU=56.0000 
diff(47,13) CPU=64.0000, GPU=56.0000 
diff(48,13) CPU=64.0000, GPU=56.0000 
diff(49,13) CPU=64.0000, GPU=56.0000 
diff(50,13) CPU=64.0000, GPU=56.0000 
diff(51,13) CPU=64.0000, GPU=56.0000 
diff(52,13) CPU=64.0000, GPU=56.0000 
diff(53,13) CPU=64.0000, GPU=56.0000 
diff(54,13) CPU=64.0000, GPU=56.0000 
diff(55,13) CPU=64.0000, GPU=56.0000 
diff(56,13) CPU=64.0000, GPU=56.0000 
diff(57,13) CPU=64.0000, GPU=56.0000 
diff(58,13) CPU=64.0000, GPU=56.0000 
diff(59,13) CPU=64.0000, GPU=56.0000 
diff(60,13) CPU=64.0000, GPU=56.0000 
diff(61,13) CPU=64.0000, GPU=56.0000 
diff(62,13) CPU=64.0000, GPU=56.0000 
diff(63,13) CPU=64.0000, GPU=56.0000 
diff(64,13) CPU=64.0000, GPU=56.0000 
diff(65,13) CPU=64.0000, GPU=56.0000 
diff(66,13) CPU=64.0000, GPU=56.0000 
diff(67,13) CPU=64.0000, GPU=56.0000 
diff(68,13) CPU=64.0000, GPU=56.0000 
diff(69,13) CPU=64.0000, GPU=56.0000 
diff(70,13) CPU=64.0000, GPU=56.0000 
diff(71,13) CPU=64.0000, GPU=56.0000 
diff(72,13) CPU=64.0000, GPU=56.0000 
diff(73,13) CPU=64.0000, GPU=56.0000 
diff(74,13) CPU=64.0000, GPU=56.0000 
diff(75,13) CPU=64.0000, GPU=56.0000 
diff(76,13) CPU=64.0000, GPU=56.0000 
diff(77,13) CPU=64.0000, GPU=56.0000 
diff(78,13) CPU=64.0000, GPU=56.0000 
diff(79,13) CPU=64.0000, GPU=56.0000 
diff(80,13) CPU=64.0000, GPU=56.0000 
diff(81,13) CPU=64.0000, GPU=56.0000 
diff(82,13) CPU=64.0000, GPU=56.0000 
diff(83,13) CPU=64.0000, GPU=56.0000 
diff(84,13) CPU=64.0000, GPU=56.0000 
diff(85,13) CPU=64.0000, GPU=56.0000 
diff(86,13) CPU=64.0000, GPU=56.0000 
diff(87,13) CPU=64.0000, GPU=56.0000 
diff(88,13) CPU=64.0000, GPU=56.0000 
diff(89,13) CPU=64.0000, GPU=56.0000 
diff(90,13) CPU=64.0000, GPU=56.0000 
diff(91,13) CPU=64.0000, GPU=56.0000 
diff(92,13) CPU=64.0000, GPU=56.0000 
diff(93,13) CPU=64.0000, GPU=56.0000 
diff(94,13) CPU=64.0000, GPU=56.0000 
diff(95,13) CPU=64.0000, GPU=56.0000 
diff(96,13) CPU=64.0000, GPU=56.0000 
diff(97,13) CPU=64.0000, GPU=56.0000 
diff(98,13) CPU=64.0000, GPU=56.0000 
diff(99,13) CPU=64.0000, GPU=56.0000 
diff(100,13) CPU=64.0000, GPU=56.0000 
diff(101,13) CPU=64.0000, GPU=56.0000 
diff(102,13) CPU=64.0000, GPU=56.0000 
diff(103,13) CPU=64.0000, GPU=56.0000 
diff(104,13) CPU=64.0000, GPU=56.0000 
diff(105,13) CPU=64.0000, GPU=56.0000 
diff(106,13) CPU=64.0000, GPU=56.0000 
diff(107,13) CPU=64.0000, GPU=56.0000 
diff(108,13) CPU=64.0000, GPU=56.0000 
diff(109,13) CPU=64.0000, GPU=56.0000 
diff(110,13) CPU=64.0000, GPU=56.0000 
diff(111,13) CPU=64.0000, GPU=56.0000 
diff(112,13) CPU=64.0000, GPU=56.0000 
diff(113,13) CPU=64.0000, GPU=56.0000 
diff(114,13) CPU=64.0000, GPU=56.0000 
diff(115,13) CPU=64.0000, GPU=56.0000 
diff(116,13) CPU=64.0000, GPU=56.0000 
diff(117,13) CPU=64.0000, GPU=56.0000 
diff(118,13) CPU=64.0000, GPU=56.0000 
diff(119,13) CPU=64.0000, GPU=56.0000 
diff(120,13) CPU=64.0000, GPU=56.0000 
diff(121,13) CPU=64.0000, GPU=56.0000 
diff(122,13) CPU=64.0000, GPU=56.0000 
diff(123,13) CPU=64.0000, GPU=56.0000 
diff(124,13) CPU=64.0000, GPU=56.0000 
diff(125,13) CPU=64.0000, GPU=56.0000 
diff(126,13) CPU=64.0000, GPU=56.0000 
diff(127,13) CPU=64.0000, GPU=56.0000 
diff(128,13) CPU=64.0000, GPU=56.0000 
diff(129,13) CPU=64.0000, GPU=56.0000 
diff(130,13) CPU=64.0000, GPU=56.0000 
diff(131,13) CPU=64.0000, GPU=56.0000 
diff(132,13) CPU=64.0000, GPU=56.0000 
diff(133,13) CPU=64.0000, GPU=56.0000 
diff(134,13) CPU=64.0000, GPU=56.0000 
diff(135,13) CPU=64.0000, GPU=56.0000 
diff(136,13) CPU=64.0000, GPU=56.0000 
diff(137,13) CPU=64.0000, GPU=56.0000 
diff(138,13) CPU=64.0000, GPU=56.0000 
diff(139,13) CPU=64.0000, GPU=56.0000 
diff(140,13) CPU=64.0000, GPU=56.0000 
diff(141,13) CPU=64.0000, GPU=56.0000 
diff(142,13) CPU=64.0000, GPU=56.0000 
diff(143,13) CPU=64.0000, GPU=56.0000 
diff(144,13) CPU=64.0000, GPU=56.0000 
diff(145,13) CPU=64.0000, GPU=56.0000 
diff(146,13) CPU=64.0000, GPU=56.0000 
diff(147,13) CPU=64.0000, GPU=56.0000 
diff(148,13) CPU=64.0000, GPU=56.0000 
diff(149,13) CPU=64.0000, GPU=56.0000 
diff(150,13) CPU=64.0000, GPU=56.0000 
diff(151,13) CPU=64.0000, GPU=56.0000 
diff(152,13) CPU=64.0000, GPU=56.0000 
diff(153,13) CPU=64.0000, GPU=56.0000 
diff(154,13) CPU=64.0000, GPU=56.0000 
diff(155,13) CPU=64.0000, GPU=56.0000 
diff(156,13) CPU=64.0000, GPU=56.0000 
diff(157,13) CPU=64.0000, GPU=56.0000 
diff(158,13) CPU=64.0000, GPU=56.0000 
diff(159,13) CPU=64.0000, GPU=56.0000 
diff(160,13) CPU=64.0000, GPU=56.0000 
diff(161,13) CPU=64.0000, GPU=56.0000 
diff(162,13) CPU=64.0000, GPU=56.0000 
diff(163,13) CPU=64.0000, GPU=56.0000 
diff(164,13) CPU=64.0000, GPU=56.0000 
diff(165,13) CPU=64.0000, GPU=56.0000 
diff(166,13) CPU=64.0000, GPU=56.0000 
diff(167,13) CPU=64.0000, GPU=56.0000 
diff(168,13) CPU=64.0000, GPU=56.0000 
diff(169,13) CPU=64.0000, GPU=56.0000 
diff(170,13) CPU=64.0000, GPU=56.0000 
diff(171,13) CPU=64.0000, GPU=56.0000 
diff(172,13) CPU=64.0000, GPU=56.0000 
diff(173,13) CPU=64.0000, GPU=56.0000 
diff(174,13) CPU=64.0000, GPU=56.0000 
diff(175,13) CPU=64.0000, GPU=56.0000 
diff(176,13) CPU=64.0000, GPU=56.0000 
diff(177,13) CPU=64.0000, GPU=56.0000 
diff(178,13) CPU=64.0000, GPU=56.0000 
diff(179,13) CPU=64.0000, GPU=56.0000 
diff(180,13) CPU=64.0000, GPU=56.0000 
diff(181,13) CPU=64.0000, GPU=56.0000 
diff(182,13) CPU=64.0000, GPU=56.0000 
diff(183,13) CPU=64.0000, GPU=56.0000 
diff(184,13) CPU=64.0000, GPU=56.0000 
diff(185,13) CPU=64.0000, GPU=56.0000 
diff(186,13) CPU=64.0000, GPU=56.0000 
diff(187,13) CPU=64.0000, GPU=56.0000 
diff(188,13) CPU=64.0000, GPU=56.0000 
diff(189,13) CPU=64.0000, GPU=56.0000 
diff(190,13) CPU=64.0000, GPU=56.0000 
diff(191,13) CPU=64.0000, GPU=56.0000 
diff(192,13) CPU=64.0000, GPU=56.0000 
diff(193,13) CPU=64.0000, GPU=56.0000 
diff(194,13) CPU=64.0000, GPU=56.0000 
diff(195,13) CPU=64.0000, GPU=56.0000 
diff(196,13) CPU=64.0000, GPU=56.0000 
diff(197,13) CPU=64.0000, GPU=56.0000 
diff(198,13) CPU=64.0000, GPU=56.0000 
diff(199,13) CPU=64.0000, GPU=56.0000 
diff(200,13) CPU=64.0000, GPU=56.0000 
diff(201,13) CPU=64.0000, GPU=56.0000 
diff(202,13) CPU=64.0000, GPU=56.0000 
diff(203,13) CPU=64.0000, GPU=56.0000 
diff(204,13) CPU=64.0000, GPU=56.0000 
diff(205,13) CPU=64.0000, GPU=56.0000 
diff(206,13) CPU=64.0000, GPU=56.0000 
diff(207,13) CPU=64.0000, GPU=56.0000 
diff(208,13) CPU=64.0000, GPU=56.0000 
diff(209,13) CPU=64.0000, GPU=56.0000 
diff(210,13) CPU=64.0000, GPU=56.0000 
diff(211,13) CPU=64.0000, GPU=56.0000 
diff(212,13) CPU=64.0000, GPU=56.0000 
diff(213,13) CPU=64.0000, GPU=56.0000 
diff(214,13) CPU=64.0000, GPU=56.0000 
diff(215,13) CPU=64.0000, GPU=56.0000 
diff(216,13) CPU=64.0000, GPU=56.0000 
diff(217,13) CPU=64.0000, GPU=56.0000 
diff(218,13) CPU=64.0000, GPU=56.0000 
diff(219,13) CPU=64.0000, GPU=56.0000 
diff(220,13) CPU=64.0000, GPU=56.0000 
diff(221,13) CPU=64.0000, GPU=56.0000 
diff(222,13) CPU=64.0000, GPU=56.0000 
diff(223,13) CPU=64.0000, GPU=56.0000 
diff(224,13) CPU=64.0000, GPU=56.0000 
diff(225,13) CPU=64.0000, GPU=56.0000 
diff(226,13) CPU=64.0000, GPU=56.0000 
diff(227,13) CPU=64.0000, GPU=56.0000 
diff(228,13) CPU=64.0000, GPU=56.0000 
diff(229,13) CPU=64.0000, GPU=56.0000 
diff(230,13) CPU=64.0000, GPU=56.0000 
diff(231,13) CPU=64.0000, GPU=56.0000 
diff(232,13) CPU=64.0000, GPU=56.0000 
diff(233,13) CPU=64.0000, GPU=56.0000 
diff(234,13) CPU=64.0000, GPU=56.0000 
diff(235,13) CPU=64.0000, GPU=56.0000 
diff(236,13) CPU=64.0000, GPU=56.0000 
diff(237,13) CPU=64.0000, GPU=56.0000 
diff(238,13) CPU=64.0000, GPU=56.0000 
diff(239,13) CPU=64.0000, GPU=56.0000 
diff(240,13) CPU=64.0000, GPU=56.0000 
diff(241,13) CPU=64.0000, GPU=56.0000 
diff(242,13) CPU=64.0000, GPU=56.0000 
diff(243,13) CPU=64.0000, GPU=56.0000 
diff(244,13) CPU=64.0000, GPU=56.0000 
diff(245,13) CPU=64.0000, GPU=56.0000 
diff(246,13) CPU=64.0000, GPU=56.0000 
diff(247,13) CPU=64.0000, GPU=56.0000 
diff(248,13) CPU=64.0000, GPU=56.0000 
diff(249,13) CPU=64.0000, GPU=56.0000 
diff(250,13) CPU=64.0000, GPU=56.0000 
diff(251,13) CPU=64.0000, GPU=56.0000 
diff(252,13) CPU=64.0000, GPU=56.0000 
diff(253,13) CPU=64.0000, GPU=56.0000 
diff(254,13) CPU=64.0000, GPU=56.0000 
diff(255,13) CPU=64.0000, GPU=56.0000 
 nTotal Errors = 3328 n
Press ENTER to exit...
