

        *** GPGPU-Sim Simulator Version 3.2.2  [build 0] ***


GPGPU-Sim PTX: simulation mode 0 (can change with PTX_SIM_MODE_FUNC environment variable:
               1=functional simulation only, 0=detailed performance simulator)
GPGPU-Sim: Configuration options:

-network_mode                           1 # Interconnection network mode
-inter_config_file   config_fermi_islip.icnt # Interconnection network config file
-gpgpu_ptx_use_cuobjdump                    1 # Use cuobjdump to extract ptx and sass from binaries
-gpgpu_experimental_lib_support                    0 # Try to extract code from cuda libraries [Broken because of unknown cudaGetExportTable]
-gpgpu_ptx_convert_to_ptxplus                    0 # Convert SASS (native ISA) to ptxplus and run ptxplus
-gpgpu_ptx_force_max_capability                   20 # Force maximum compute capability
-gpgpu_ptx_inst_debug_to_file                    0 # Dump executed instructions' debug information to file
-gpgpu_ptx_inst_debug_file       inst_debug.txt # Executed instructions' debug output file
-gpgpu_ptx_inst_debug_thread_uid                    1 # Thread UID for executed instructions' debug output
-gpgpu_simd_model                       1 # 1 = post-dominator
-gpgpu_shader_core_pipeline              1536:32 # shader core pipeline config, i.e., {<nthread>:<warpsize>}
-gpgpu_tex_cache:l1  4:128:24,L:R:m:N:L,F:128:4,128:2 # per-shader L1 texture cache  (READ-ONLY) config  {<nsets>:<bsize>:<assoc>,<rep>:<wr>:<alloc>:<wr_alloc>,<mshr>:<N>:<merge>,<mq>:<rf>}
-gpgpu_const_cache:l1 64:64:2,L:R:f:N:L,A:2:32,4 # per-shader L1 constant memory cache  (READ-ONLY) config  {<nsets>:<bsize>:<assoc>,<rep>:<wr>:<alloc>:<wr_alloc>,<mshr>:<N>:<merge>,<mq>} 
-gpgpu_cache:il1     4:128:4,L:R:f:N:L,A:2:32,4 # shader L1 instruction cache config  {<nsets>:<bsize>:<assoc>,<rep>:<wr>:<alloc>:<wr_alloc>,<mshr>:<N>:<merge>,<mq>} 
-gpgpu_cache:dl1     32:128:4,L:L:m:N:H,A:32:8,8 # per-shader L1 data cache config  {<nsets>:<bsize>:<assoc>,<rep>:<wr>:<alloc>:<wr_alloc>,<mshr>:<N>:<merge>,<mq> | none}
-gpgpu_cache:dl1PrefL1                 none # per-shader L1 data cache config  {<nsets>:<bsize>:<assoc>,<rep>:<wr>:<alloc>:<wr_alloc>,<mshr>:<N>:<merge>,<mq> | none}
-gpgpu_cache:dl1PreShared                 none # per-shader L1 data cache config  {<nsets>:<bsize>:<assoc>,<rep>:<wr>:<alloc>:<wr_alloc>,<mshr>:<N>:<merge>,<mq> | none}
-gmem_skip_L1D                          0 # global memory access skip L1D cache (implements -Xptxas -dlcm=cg, default=no skip)
-gpgpu_perfect_mem                      0 # enable perfect memory mode (no cache miss)
-n_regfile_gating_group                    4 # group of lanes that should be read/written together)
-gpgpu_clock_gated_reg_file                    0 # enable clock gated reg file for power calculations
-gpgpu_clock_gated_lanes                    0 # enable clock gated lanes for power calculations
-gpgpu_shader_registers                32768 # Number of registers per shader core. Limits number of concurrent CTAs. (default 8192)
-gpgpu_shader_cta                       8 # Maximum number of concurrent CTAs in shader (default 8)
-gpgpu_num_cta_barriers                   16 # Maximum number of named barriers per CTA (default 16)
-gpgpu_n_clusters                      15 # number of processing clusters
-gpgpu_n_cores_per_cluster                    1 # number of simd cores per cluster
-gpgpu_n_cluster_ejection_buffer_size                    8 # number of packets in ejection buffer
-gpgpu_n_ldst_response_buffer_size                    2 # number of response packets in ld/st unit ejection buffer
-gpgpu_shmem_size                   16384 # Size of shared memory per shader core (default 16kB)
-gpgpu_shmem_size                   49152 # Size of shared memory per shader core (default 16kB)
-gpgpu_shmem_size_PrefL1                16384 # Size of shared memory per shader core (default 16kB)
-gpgpu_shmem_size_PrefShared                16384 # Size of shared memory per shader core (default 16kB)
-gpgpu_shmem_num_banks                   32 # Number of banks in the shared memory in each shader core (default 16)
-gpgpu_shmem_limited_broadcast                    0 # Limit shared memory to do one broadcast per cycle (default on)
-gpgpu_shmem_warp_parts                    1 # Number of portions a warp is divided into for shared memory bank conflict check 
-gpgpu_warpdistro_shader                   -1 # Specify which shader core to collect the warp size distribution from
-gpgpu_warp_issue_shader                    0 # Specify which shader core to collect the warp issue distribution from
-gpgpu_local_mem_map                    1 # Mapping from local memory space address to simulated GPU physical address space (default = enabled)
-gpgpu_num_reg_banks                   16 # Number of register banks (default = 8)
-gpgpu_reg_bank_use_warp_id                    0 # Use warp ID in mapping registers to banks (default = off)
-gpgpu_operand_collector_num_units_sp                    6 # number of collector units (default = 4)
-gpgpu_operand_collector_num_units_sfu                    8 # number of collector units (default = 4)
-gpgpu_operand_collector_num_units_mem                    2 # number of collector units (default = 2)
-gpgpu_operand_collector_num_units_gen                    0 # number of collector units (default = 0)
-gpgpu_operand_collector_num_in_ports_sp                    2 # number of collector unit in ports (default = 1)
-gpgpu_operand_collector_num_in_ports_sfu                    1 # number of collector unit in ports (default = 1)
-gpgpu_operand_collector_num_in_ports_mem                    1 # number of collector unit in ports (default = 1)
-gpgpu_operand_collector_num_in_ports_gen                    0 # number of collector unit in ports (default = 0)
-gpgpu_operand_collector_num_out_ports_sp                    2 # number of collector unit in ports (default = 1)
-gpgpu_operand_collector_num_out_ports_sfu                    1 # number of collector unit in ports (default = 1)
-gpgpu_operand_collector_num_out_ports_mem                    1 # number of collector unit in ports (default = 1)
-gpgpu_operand_collector_num_out_ports_gen                    0 # number of collector unit in ports (default = 0)
-gpgpu_coalesce_arch                   13 # Coalescing arch (default = 13, anything else is off for now)
-gpgpu_num_sched_per_core                    2 # Number of warp schedulers per core
-gpgpu_max_insn_issue_per_warp                    1 # Max number of instructions that can be issued per warp in one cycle by scheduler
-gpgpu_simt_core_sim_order                    1 # Select the simulation order of cores in a cluster (0=Fix, 1=Round-Robin)
-gpgpu_pipeline_widths        2,1,1,2,1,1,2 # Pipeline widths ID_OC_SP,ID_OC_SFU,ID_OC_MEM,OC_EX_SP,OC_EX_SFU,OC_EX_MEM,EX_WB
-gpgpu_num_sp_units                     2 # Number of SP units (default=1)
-gpgpu_num_sfu_units                    1 # Number of SF units (default=1)
-gpgpu_num_mem_units                    1 # Number if ldst units (default=1) WARNING: not hooked up to anything
-gpgpu_scheduler                      gto # Scheduler configuration: < lrr | gto | two_level_active > If two_level_active:<num_active_warps>:<inner_prioritization>:<outer_prioritization>For complete list of prioritization values see shader.h enum scheduler_prioritization_typeDefault: gto
-gpgpu_dram_scheduler                    1 # 0 = fifo, 1 = FR-FCFS (defaul)
-gpgpu_dram_partition_queues              8:8:8:8 # i2$:$2d:d2$:$2i
-l2_ideal                               0 # Use a ideal L2 cache that always hit
-gpgpu_cache:dl2     64:128:8,L:B:m:W:L,A:32:4,4:0,32 # unified banked L2 data cache config  {<nsets>:<bsize>:<assoc>,<rep>:<wr>:<alloc>:<wr_alloc>,<mshr>:<N>:<merge>,<mq>}
-gpgpu_cache:dl2_texture_only                    0 # L2 cache used for texture only
-gpgpu_n_mem                            6 # number of memory modules (e.g. memory controllers) in gpu
-gpgpu_n_sub_partition_per_mchannel                    2 # number of memory subpartition in each memory module
-gpgpu_n_mem_per_ctrlr                    2 # number of memory chips per memory controller
-gpgpu_memlatency_stat                   14 # track and display latency statistics 0x2 enables MC, 0x4 enables queue logs
-gpgpu_frfcfs_dram_sched_queue_size                   16 # 0 = unlimited (default); # entries per chip
-gpgpu_dram_return_queue_size                  116 # 0 = unlimited (default); # entries per chip
-gpgpu_dram_buswidth                    4 # default = 4 bytes (8 bytes per cycle at DDR)
-gpgpu_dram_burst_length                    8 # Burst length of each DRAM request (default = 4 data bus cycle)
-dram_data_command_freq_ratio                    4 # Frequency ratio between DRAM data bus and command bus (default = 2 times, i.e. DDR)
-gpgpu_dram_timing_opt nbk=16:CCD=2:RRD=6:RCD=12:RAS=28:RP=12:RC=40: CL=12:WL=4:CDLR=5:WR=12:nbkgrp=4:CCDL=3:RTPL=2 # DRAM timing parameters = {nbk:tCCD:tRRD:tRCD:tRAS:tRP:tRC:CL:WL:tCDLR:tWR:nbkgrp:tCCDL:tRTPL}
-rop_latency                          120 # ROP queue latency (default 85)
-dram_latency                         100 # DRAM latency (default 30)
-gpgpu_mem_addr_mapping dramid@8;00000000.00000000.00000000.00000000.0000RRRR.RRRRRRRR.BBBCCCCB.CCSSSSSS # mapping memory address to dram model {dramid@<start bit>;<memory address map>}
-gpgpu_mem_addr_test                    0 # run sweep test to check address mapping for aliased address
-gpgpu_mem_address_mask                    1 # 0 = old addressing mask, 1 = new addressing mask, 2 = new add. mask + flipped bank sel and chip sel bits
-gpuwattch_xml_file  gpuwattch_gtx480.xml # GPUWattch XML file
-power_simulation_enabled                    1 # Turn on power simulator (1=On, 0=Off)
-power_per_cycle_dump                    0 # Dump detailed power output each cycle
-power_trace_enabled                    0 # produce a file for the power trace (1=On, 0=Off)
-power_trace_zlevel                     6 # Compression level of the power trace output log (0=no comp, 9=highest)
-steady_power_levels_enabled                    0 # produce a file for the steady power levels (1=On, 0=Off)
-steady_state_definition                  8:4 # allowed deviation:number of samples
-gpgpu_max_cycle                        0 # terminates gpu simulation early (0 = no limit)
-gpgpu_max_insn                         0 # terminates gpu simulation early (0 = no limit)
-gpgpu_max_cta                          0 # terminates gpu simulation early (0 = no limit)
-gpgpu_runtime_stat                   500 # display runtime statistics such as dram utilization {<freq>:<flag>}
-liveness_message_freq                    1 # Minimum number of seconds between simulation liveness messages (0 = always print)
-gpgpu_flush_l1_cache                    0 # Flush L1 cache at the end of each kernel call
-gpgpu_flush_l2_cache                    0 # Flush L2 cache at the end of each kernel call
-gpgpu_deadlock_detect                    1 # Stop the simulation at deadlock (1=on (default), 0=off)
-gpgpu_ptx_instruction_classification                    0 # if enabled will classify ptx instruction types per kernel (Max 255 kernels now)
-gpgpu_ptx_sim_mode                     0 # Select between Performance (default) or Functional simulation (1)
-gpgpu_clock_domains 700.0:700.0:700.0:924.0 # Clock Domain Frequencies in MhZ {<Core Clock>:<ICNT Clock>:<L2 Clock>:<DRAM Clock>}
-gpgpu_max_concurrent_kernel                    8 # maximum kernels that can run concurrently on GPU
-gpgpu_cflog_interval                    0 # Interval between each snapshot in control flow logger
-visualizer_enabled                     0 # Turn on visualizer output (1=On, 0=Off)
-visualizer_outputfile                 NULL # Specifies the output log file for visualizer
-visualizer_zlevel                      6 # Compression level of the visualizer output log (0=no comp, 9=highest)
-trace_enabled                          0 # Turn on traces
-trace_components                    none # comma seperated list of traces to enable. Complete list found in trace_streams.tup. Default none
-trace_sampling_core                    0 # The core which is printed using CORE_DPRINTF. Default 0
-trace_sampling_memory_partition                   -1 # The memory partition which is printed using MEMPART_DPRINTF. Default -1 (i.e. all)
-enable_ptx_file_line_stats                    1 # Turn on PTX source line statistic profiling. (1 = On)
-ptx_line_stats_filename gpgpu_inst_stats.txt # Output file for PTX source line statistics.
-save_embedded_ptx                      0 # saves ptx files embedded in binary as <n>.ptx
-keep                                   0 # keep intermediate files created by GPGPU-Sim when interfacing with external programs
-gpgpu_ptx_save_converted_ptxplus                    0 # Saved converted ptxplus to a file
-ptx_opcode_latency_int         4,13,4,5,145 # Opcode latencies for integers <ADD,MAX,MUL,MAD,DIV>Default 1,1,19,25,145
-ptx_opcode_latency_fp          4,13,4,5,39 # Opcode latencies for single precision floating points <ADD,MAX,MUL,MAD,DIV>Default 1,1,1,1,30
-ptx_opcode_latency_dp         8,19,8,8,330 # Opcode latencies for double precision floating points <ADD,MAX,MUL,MAD,DIV>Default 8,8,8,8,335
-ptx_opcode_initiation_int            1,2,2,1,8 # Opcode initiation intervals for integers <ADD,MAX,MUL,MAD,DIV>Default 1,1,4,4,32
-ptx_opcode_initiation_fp            1,2,1,1,4 # Opcode initiation intervals for single precision floating points <ADD,MAX,MUL,MAD,DIV>Default 1,1,1,1,5
-ptx_opcode_initiation_dp         8,16,8,8,130 # Opcode initiation intervals for double precision floating points <ADD,MAX,MUL,MAD,DIV>Default 8,8,8,8,130
DRAM Timing Options:
nbk                                    16 # number of banks
CCD                                     2 # column to column delay
RRD                                     6 # minimal delay between activation of rows in different banks
RCD                                    12 # row to column delay
RAS                                    28 # time needed to activate row
RP                                     12 # time needed to precharge (deactivate) row
RC                                     40 # row cycle time
CDLR                                    5 # switching from write to read (changes tWTR)
WR                                     12 # last data-in to row precharge
CL                                     12 # CAS latency
WL                                      4 # Write latency
nbkgrp                                  4 # number of bank groups
CCDL                                    3 # column to column delay between accesses to different bank groups
RTPL                                    2 # read to precharge delay between accesses to different bank groups
Total number of memory sub partition = 12
addr_dec_mask[CHIP]  = 0000000000000000 	high:64 low:0
addr_dec_mask[BK]    = 000000000000e100 	high:16 low:8
addr_dec_mask[ROW]   = 000000000fff0000 	high:28 low:16
addr_dec_mask[COL]   = 0000000000001eff 	high:13 low:0
addr_dec_mask[BURST] = 000000000000003f 	high:6 low:0
sub_partition_id_mask = 0000000000000100
GPGPU-Sim uArch: clock freqs: 700000000.000000:700000000.000000:700000000.000000:924000000.000000
GPGPU-Sim uArch: clock periods: 0.00000000142857142857:0.00000000142857142857:0.00000000142857142857:0.00000000108225108225
*** Initializing Memory Statistics ***
GPGPU-Sim uArch: interconnect node map (shaderID+MemID to icntID)
GPGPU-Sim uArch: Memory nodes ID start from index: 15
GPGPU-Sim uArch:    0   1   2   3   4
GPGPU-Sim uArch:    5   6   7   8   9
GPGPU-Sim uArch:   10  11  12  13  14
GPGPU-Sim uArch:   15  16  17  18  19
GPGPU-Sim uArch:   20  21  22  23  24
GPGPU-Sim uArch:   25  26
GPGPU-Sim uArch: interconnect node reverse map (icntID to shaderID+MemID)
GPGPU-Sim uArch: Memory nodes start from ID: 15
GPGPU-Sim uArch:    0   1   2   3   4
GPGPU-Sim uArch:    5   6   7   8   9
GPGPU-Sim uArch:   10  11  12  13  14
GPGPU-Sim uArch:   15  16  17  18  19
GPGPU-Sim uArch:   20  21  22  23  24
GPGPU-Sim uArch:   25  26
54532909058989530077155448603dba  /home/ece786/NVIDIA_GPU_Computing_SDK/C/bin/linux/release/matrix
GPGPU-Sim uArch: performance model initialization complete.
GPGPU-Sim PTX: FatBin file name extraction has not been tested on 32-bit system.
GPGPU-Sim PTX: __cudaRegisterFatBinary, fat_cubin_handle = 1, filename=matrix.cu
self exe links to: /home/ece786/NVIDIA_GPU_Computing_SDK/C/bin/linux/release/matrix
Running md5sum using "md5sum /home/ece786/NVIDIA_GPU_Computing_SDK/C/bin/linux/release/matrix "
Running cuobjdump using "$CUDA_INSTALL_PATH/bin/cuobjdump -ptx -elf -sass /home/ece786/NVIDIA_GPU_Computing_SDK/C/bin/linux/release/matrix > _cuobjdump_complete_output_zeD70a"
Parsing file _cuobjdump_complete_output_zeD70a
######### cuobjdump parser ########
## Adding new section PTX
Adding ptx filename: _cuobjdump_1.ptx
Adding arch: sm_10
Adding identifier: matrix.cu
## Adding new section ELF
Adding arch: sm_10
Adding identifier: matrix.cu
## Adding new section PTX
Adding ptx filename: _cuobjdump_2.ptx
Adding arch: sm_20
Adding identifier: matrix.cu
## Adding new section ELF
Adding arch: sm_20
Adding identifier: matrix.cu
Done parsing!!!
GPGPU-Sim PTX: __cudaRegisterFunction _Z10testKernelPfS_S_jjjj : hostFun 0x0x804b4c0, fat_cubin_handle = 1
GPGPU-Sim PTX: allocating shared region for "__cuda___cuda_local_var_35272_35_non_const_shm_subMatrixA28" from 0x0 to 0x0 (shared memory space)
GPGPU-Sim PTX: instruction assembly for function '_Z10testKernelPfS_S_jjjj'...   done.
GPGPU-Sim PTX: finding reconvergence points for '_Z10testKernelPfS_S_jjjj'...
GPGPU-Sim PTX: Finding dominators for '_Z10testKernelPfS_S_jjjj'...
GPGPU-Sim PTX: Finding immediate dominators for '_Z10testKernelPfS_S_jjjj'...
GPGPU-Sim PTX: Finding postdominators for '_Z10testKernelPfS_S_jjjj'...
GPGPU-Sim PTX: Finding immediate postdominators for '_Z10testKernelPfS_S_jjjj'...
GPGPU-Sim PTX: pre-decoding instructions for '_Z10testKernelPfS_S_jjjj'...
GPGPU-Sim PTX: reconvergence points for _Z10testKernelPfS_S_jjjj...
GPGPU-Sim PTX:  1 (potential) branch divergence @  PC=0x048 (_1.ptx:75) @%p1 bra $Lt_0_8450;
GPGPU-Sim PTX:    immediate post dominator      @  PC=0x250 (_1.ptx:156) ld.param.u32 %r44, [__cudaparm__Z10testKernelPfS_S_jjjj_d_matrixC];
GPGPU-Sim PTX:  2 (potential) branch divergence @  PC=0x0e8 (_1.ptx:97) @%p4 bra $Lt_0_6658;
GPGPU-Sim PTX:    immediate post dominator      @  PC=0x138 (_1.ptx:110) bar.sync 0;
GPGPU-Sim PTX:  3 (potential) branch divergence @  PC=0x140 (_1.ptx:111) @!%p2 bra $Lt_0_7170;
GPGPU-Sim PTX:    immediate post dominator      @  PC=0x218 (_1.ptx:146) bar.sync 0;
GPGPU-Sim PTX:  4 (potential) branch divergence @  PC=0x160 (_1.ptx:118) @!%p3 bra $Lt_0_9474;
GPGPU-Sim PTX:    immediate post dominator      @  PC=0x200 (_1.ptx:141) add.s32 %r32, %r32, 1;
GPGPU-Sim PTX:  5 (potential) branch divergence @  PC=0x170 (_1.ptx:120) @%p5 bra $Lt_0_9474;
GPGPU-Sim PTX:    immediate post dominator      @  PC=0x200 (_1.ptx:141) add.s32 %r32, %r32, 1;
GPGPU-Sim PTX:  6 (potential) branch divergence @  PC=0x190 (_1.ptx:124) @%p6 bra $Lt_0_9474;
GPGPU-Sim PTX:    immediate post dominator      @  PC=0x200 (_1.ptx:141) add.s32 %r32, %r32, 1;
GPGPU-Sim PTX:  7 (potential) branch divergence @  PC=0x1a0 (_1.ptx:126) @%p7 bra $Lt_0_9474;
GPGPU-Sim PTX:    immediate post dominator      @  PC=0x200 (_1.ptx:141) add.s32 %r32, %r32, 1;
GPGPU-Sim PTX:  8 (potential) branch divergence @  PC=0x210 (_1.ptx:143) @%p8 bra $Lt_0_7682;
GPGPU-Sim PTX:    immediate post dominator      @  PC=0x218 (_1.ptx:146) bar.sync 0;
GPGPU-Sim PTX:  9 (potential) branch divergence @  PC=0x230 (_1.ptx:149) @%p9 bra $Lt_0_6402;
GPGPU-Sim PTX:    immediate post dominator      @  PC=0x238 (_1.ptx:150) bra.uni $Lt_0_5890;
GPGPU-Sim PTX: 10 (potential) branch divergence @  PC=0x238 (_1.ptx:150) bra.uni $Lt_0_5890;
GPGPU-Sim PTX:    immediate post dominator      @  PC=0x250 (_1.ptx:156) ld.param.u32 %r44, [__cudaparm__Z10testKernelPfS_S_jjjj_d_matrixC];
GPGPU-Sim PTX: ... end of reconvergence points for _Z10testKernelPfS_S_jjjj
GPGPU-Sim PTX: ... done pre-decoding instructions for '_Z10testKernelPfS_S_jjjj'.
GPGPU-Sim PTX: finished parsing EMBEDDED .ptx file _1.ptx
Adding _cuobjdump_2.ptx with cubin handle 1
GPGPU-Sim PTX: extracting embedded .ptx to temporary file "_ptx_6pxJct"
Running: cat _ptx_6pxJct | sed 's/.version 1.5/.version 1.4/' | sed 's/, texmode_independent//' | sed 's/\(\.extern \.const\[1\] .b8 \w\+\)\[\]/\1\[1\]/' | sed 's/const\[.\]/const\[0\]/g' > _ptx2_xAAmoL
GPGPU-Sim PTX: generating ptxinfo using "$CUDA_INSTALL_PATH/bin/ptxas --gpu-name=sm_20 -v _ptx2_xAAmoL --output-file  /dev/null 2> _ptx_6pxJctinfo"
GPGPU-Sim PTX: Kernel '_Z10testKernelPfS_S_jjjj' : regs=11, lmem=0, smem=1024, cmem=60
GPGPU-Sim PTX: removing ptxinfo using "rm -f _ptx_6pxJct _ptx2_xAAmoL _ptx_6pxJctinfo"
GPGPU-Sim PTX: loading globals with explicit initializers... 
GPGPU-Sim PTX: finished loading globals (0 bytes total).
GPGPU-Sim PTX: loading constants with explicit initializers...  done.
initalize A
matrix A
matrix B
Start Timer

GPGPU-Sim PTX: cudaLaunch for 0x0x804b4c0 (mode=performance simulation) on stream 0
GPGPU-Sim PTX: pushing kernel '_Z10testKernelPfS_S_jjjj' to stream 0, gridDim= (1,256,1) blockDim = (256,1,1) 
kernel '_Z10testKernelPfS_S_jjjj' transfer to GPU hardware scheduler
GPGPU-Sim uArch: Shader 1 bind to kernel 1 '_Z10testKernelPfS_S_jjjj'
GPGPU-Sim uArch: CTA/core = 6, limited by: threads
GPGPU-Sim uArch: core:  1, cta: 0 initialized @(1,0)
GPGPU-Sim uArch: Shader 2 bind to kernel 1 '_Z10testKernelPfS_S_jjjj'
GPGPU-Sim uArch: core:  2, cta: 0 initialized @(1,0)
GPGPU-Sim uArch: Shader 3 bind to kernel 1 '_Z10testKernelPfS_S_jjjj'
GPGPU-Sim uArch: core:  3, cta: 0 initialized @(1,0)
GPGPU-Sim uArch: Shader 4 bind to kernel 1 '_Z10testKernelPfS_S_jjjj'
GPGPU-Sim uArch: core:  4, cta: 0 initialized @(1,0)
GPGPU-Sim uArch: Shader 5 bind to kernel 1 '_Z10testKernelPfS_S_jjjj'
GPGPU-Sim uArch: core:  5, cta: 0 initialized @(1,0)
GPGPU-Sim uArch: Shader 6 bind to kernel 1 '_Z10testKernelPfS_S_jjjj'
GPGPU-Sim uArch: core:  6, cta: 0 initialized @(1,0)
GPGPU-Sim uArch: Shader 7 bind to kernel 1 '_Z10testKernelPfS_S_jjjj'
GPGPU-Sim uArch: core:  7, cta: 0 initialized @(1,0)
GPGPU-Sim uArch: Shader 8 bind to kernel 1 '_Z10testKernelPfS_S_jjjj'
GPGPU-Sim uArch: core:  8, cta: 0 initialized @(1,0)
GPGPU-Sim uArch: Shader 9 bind to kernel 1 '_Z10testKernelPfS_S_jjjj'
GPGPU-Sim uArch: core:  9, cta: 0 initialized @(1,0)
GPGPU-Sim uArch: Shader 10 bind to kernel 1 '_Z10testKernelPfS_S_jjjj'
GPGPU-Sim uArch: core: 10, cta: 0 initialized @(1,0)
GPGPU-Sim uArch: Shader 11 bind to kernel 1 '_Z10testKernelPfS_S_jjjj'
GPGPU-Sim uArch: core: 11, cta: 0 initialized @(1,0)
GPGPU-Sim uArch: Shader 12 bind to kernel 1 '_Z10testKernelPfS_S_jjjj'
GPGPU-Sim uArch: core: 12, cta: 0 initialized @(1,0)
GPGPU-Sim uArch: Shader 13 bind to kernel 1 '_Z10testKernelPfS_S_jjjj'
GPGPU-Sim uArch: core: 13, cta: 0 initialized @(1,0)
GPGPU-Sim uArch: Shader 14 bind to kernel 1 '_Z10testKernelPfS_S_jjjj'
GPGPU-Sim uArch: core: 14, cta: 0 initialized @(1,0)
GPGPU-Sim uArch: Shader 0 bind to kernel 1 '_Z10testKernelPfS_S_jjjj'
GPGPU-Sim uArch: core:  0, cta: 0 initialized @(1,0)
GPGPU-Sim uArch: core:  1, cta: 1 initialized @(2,0)
GPGPU-Sim uArch: core:  2, cta: 1 initialized @(2,0)
GPGPU-Sim uArch: core:  3, cta: 1 initialized @(2,0)
GPGPU-Sim uArch: core:  4, cta: 1 initialized @(2,0)
GPGPU-Sim uArch: core:  5, cta: 1 initialized @(2,0)
GPGPU-Sim uArch: core:  6, cta: 1 initialized @(2,0)
GPGPU-Sim uArch: core:  7, cta: 1 initialized @(2,0)
GPGPU-Sim uArch: core:  8, cta: 1 initialized @(2,0)
GPGPU-Sim uArch: core:  9, cta: 1 initialized @(2,0)
GPGPU-Sim uArch: core: 10, cta: 1 initialized @(2,0)
GPGPU-Sim uArch: core: 11, cta: 1 initialized @(2,0)
GPGPU-Sim uArch: core: 12, cta: 1 initialized @(2,0)
GPGPU-Sim uArch: core: 13, cta: 1 initialized @(2,0)
GPGPU-Sim uArch: core: 14, cta: 1 initialized @(2,0)
GPGPU-Sim uArch: core:  0, cta: 1 initialized @(2,0)
GPGPU-Sim uArch: core:  1, cta: 2 initialized @(3,0)
GPGPU-Sim uArch: core:  2, cta: 2 initialized @(3,0)
GPGPU-Sim uArch: core:  3, cta: 2 initialized @(3,0)
GPGPU-Sim uArch: core:  4, cta: 2 initialized @(3,0)
GPGPU-Sim uArch: core:  5, cta: 2 initialized @(3,0)
GPGPU-Sim uArch: core:  6, cta: 2 initialized @(3,0)
GPGPU-Sim uArch: core:  7, cta: 2 initialized @(3,0)
GPGPU-Sim uArch: core:  8, cta: 2 initialized @(3,0)
GPGPU-Sim uArch: core:  9, cta: 2 initialized @(3,0)
GPGPU-Sim uArch: core: 10, cta: 2 initialized @(3,0)
GPGPU-Sim uArch: core: 11, cta: 2 initialized @(3,0)
GPGPU-Sim uArch: core: 12, cta: 2 initialized @(3,0)
GPGPU-Sim uArch: core: 13, cta: 2 initialized @(3,0)
GPGPU-Sim uArch: core: 14, cta: 2 initialized @(3,0)
GPGPU-Sim uArch: core:  0, cta: 2 initialized @(3,0)
GPGPU-Sim uArch: core:  1, cta: 3 initialized @(4,0)
GPGPU-Sim uArch: core:  2, cta: 3 initialized @(4,0)
GPGPU-Sim uArch: core:  3, cta: 3 initialized @(4,0)
GPGPU-Sim uArch: core:  4, cta: 3 initialized @(4,0)
GPGPU-Sim uArch: core:  5, cta: 3 initialized @(4,0)
GPGPU-Sim uArch: core:  6, cta: 3 initialized @(4,0)
GPGPU-Sim uArch: core:  7, cta: 3 initialized @(4,0)
GPGPU-Sim uArch: core:  8, cta: 3 initialized @(4,0)
GPGPU-Sim uArch: core:  9, cta: 3 initialized @(4,0)
GPGPU-Sim uArch: core: 10, cta: 3 initialized @(4,0)
GPGPU-Sim uArch: core: 11, cta: 3 initialized @(4,0)
GPGPU-Sim uArch: core: 12, cta: 3 initialized @(4,0)
GPGPU-Sim uArch: core: 13, cta: 3 initialized @(4,0)
GPGPU-Sim uArch: core: 14, cta: 3 initialized @(4,0)
GPGPU-Sim uArch: core:  0, cta: 3 initialized @(4,0)
GPGPU-Sim uArch: core:  1, cta: 4 initialized @(5,0)
GPGPU-Sim uArch: core:  2, cta: 4 initialized @(5,0)
GPGPU-Sim uArch: core:  3, cta: 4 initialized @(5,0)
GPGPU-Sim uArch: core:  4, cta: 4 initialized @(5,0)
GPGPU-Sim uArch: core:  5, cta: 4 initialized @(5,0)
GPGPU-Sim uArch: core:  6, cta: 4 initialized @(5,0)
GPGPU-Sim uArch: core:  7, cta: 4 initialized @(5,0)
GPGPU-Sim uArch: core:  8, cta: 4 initialized @(5,0)
GPGPU-Sim uArch: core:  9, cta: 4 initialized @(5,0)
GPGPU-Sim uArch: core: 10, cta: 4 initialized @(5,0)
GPGPU-Sim uArch: core: 11, cta: 4 initialized @(5,0)
GPGPU-Sim uArch: core: 12, cta: 4 initialized @(5,0)
GPGPU-Sim uArch: core: 13, cta: 4 initialized @(5,0)
GPGPU-Sim uArch: core: 14, cta: 4 initialized @(5,0)
GPGPU-Sim uArch: core:  0, cta: 4 initialized @(5,0)
GPGPU-Sim uArch: core:  1, cta: 5 initialized @(6,0)
GPGPU-Sim uArch: core:  2, cta: 5 initialized @(6,0)
GPGPU-Sim uArch: core:  3, cta: 5 initialized @(6,0)
GPGPU-Sim uArch: core:  4, cta: 5 initialized @(6,0)
GPGPU-Sim uArch: core:  5, cta: 5 initialized @(6,0)
GPGPU-Sim uArch: core:  6, cta: 5 initialized @(6,0)
GPGPU-Sim uArch: core:  7, cta: 5 initialized @(6,0)
GPGPU-Sim uArch: core:  8, cta: 5 initialized @(6,0)
GPGPU-Sim uArch: core:  9, cta: 5 initialized @(6,0)
GPGPU-Sim uArch: core: 10, cta: 5 initialized @(6,0)
GPGPU-Sim uArch: core: 11, cta: 5 initialized @(6,0)
GPGPU-Sim uArch: core: 12, cta: 5 initialized @(6,0)
GPGPU-Sim uArch: core: 13, cta: 5 initialized @(6,0)
GPGPU-Sim uArch: core: 14, cta: 5 initialized @(6,0)
GPGPU-Sim uArch: core:  0, cta: 5 initialized @(6,0)
GPGPU-Sim PTX: 100000 instructions simulated : ctaid=(0,54,0) tid=(255,0,0)
GPGPU-Sim uArch: cycles simulated: 500  inst.: 146944 (ipc=293.9) sim_rate=146944 (inst/sec) elapsed = 0:0:00:01 / Tue Mar 10 19:24:16 2015
GPGPU-Sim PTX: 200000 instructions simulated : ctaid=(0,44,0) tid=(31,0,0)
GPGPU-Sim PTX: 300000 instructions simulated : ctaid=(0,55,0) tid=(223,0,0)
GPGPU-Sim uArch: cycles simulated: 1000  inst.: 345600 (ipc=345.6) sim_rate=172800 (inst/sec) elapsed = 0:0:00:02 / Tue Mar 10 19:24:17 2015
GPGPU-Sim PTX: 400000 instructions simulated : ctaid=(0,16,0) tid=(95,0,0)
GPGPU-Sim PTX: 500000 instructions simulated : ctaid=(0,12,0) tid=(223,0,0)
GPGPU-Sim PTX: 600000 instructions simulated : ctaid=(0,33,0) tid=(31,0,0)
GPGPU-Sim PTX: 700000 instructions simulated : ctaid=(0,64,0) tid=(127,0,0)
GPGPU-Sim PTX: 800000 instructions simulated : ctaid=(0,34,0) tid=(159,0,0)
GPGPU-Sim uArch: cycles simulated: 2000  inst.: 799008 (ipc=399.5) sim_rate=266336 (inst/sec) elapsed = 0:0:00:03 / Tue Mar 10 19:24:18 2015
GPGPU-Sim PTX: 900000 instructions simulated : ctaid=(0,81,0) tid=(63,0,0)
GPGPU-Sim PTX: 1000000 instructions simulated : ctaid=(0,63,0) tid=(31,0,0)
GPGPU-Sim PTX: 1100000 instructions simulated : ctaid=(0,19,0) tid=(159,0,0)
GPGPU-Sim PTX: 1200000 instructions simulated : ctaid=(0,8,0) tid=(127,0,0)
GPGPU-Sim PTX: 1300000 instructions simulated : ctaid=(0,59,0) tid=(127,0,0)
GPGPU-Sim uArch: cycles simulated: 3000  inst.: 1226944 (ipc=409.0) sim_rate=306736 (inst/sec) elapsed = 0:0:00:04 / Tue Mar 10 19:24:19 2015
GPGPU-Sim PTX: 1400000 instructions simulated : ctaid=(0,42,0) tid=(255,0,0)
GPGPU-Sim PTX: 1500000 instructions simulated : ctaid=(0,69,0) tid=(223,0,0)
GPGPU-Sim PTX: 1600000 instructions simulated : ctaid=(0,21,0) tid=(95,0,0)
GPGPU-Sim PTX: 1700000 instructions simulated : ctaid=(0,14,0) tid=(150,0,0)
GPGPU-Sim uArch: cycles simulated: 3500  inst.: 1506145 (ipc=430.3) sim_rate=301229 (inst/sec) elapsed = 0:0:00:05 / Tue Mar 10 19:24:20 2015
GPGPU-Sim PTX: 1800000 instructions simulated : ctaid=(0,85,0) tid=(9,0,0)
GPGPU-Sim PTX: 1900000 instructions simulated : ctaid=(0,29,0) tid=(112,0,0)
GPGPU-Sim PTX: 2000000 instructions simulated : ctaid=(0,18,0) tid=(15,0,0)
GPGPU-Sim PTX: 2100000 instructions simulated : ctaid=(0,14,0) tid=(164,0,0)
GPGPU-Sim PTX: 2200000 instructions simulated : ctaid=(0,16,0) tid=(132,0,0)
GPGPU-Sim uArch: cycles simulated: 4000  inst.: 1889402 (ipc=472.4) sim_rate=314900 (inst/sec) elapsed = 0:0:00:06 / Tue Mar 10 19:24:21 2015
GPGPU-Sim PTX: 2300000 instructions simulated : ctaid=(0,6,0) tid=(79,0,0)
GPGPU-Sim PTX: 2400000 instructions simulated : ctaid=(0,36,0) tid=(65,0,0)
GPGPU-Sim PTX: 2500000 instructions simulated : ctaid=(0,4,0) tid=(59,0,0)
GPGPU-Sim PTX: 2600000 instructions simulated : ctaid=(0,52,0) tid=(21,0,0)
GPGPU-Sim uArch: cycles simulated: 4500  inst.: 2268846 (ipc=504.2) sim_rate=324120 (inst/sec) elapsed = 0:0:00:07 / Tue Mar 10 19:24:22 2015
GPGPU-Sim PTX: 2700000 instructions simulated : ctaid=(0,8,0) tid=(241,0,0)
GPGPU-Sim PTX: 2800000 instructions simulated : ctaid=(0,38,0) tid=(23,0,0)
GPGPU-Sim PTX: 2900000 instructions simulated : ctaid=(0,25,0) tid=(194,0,0)
GPGPU-Sim PTX: 3000000 instructions simulated : ctaid=(0,5,0) tid=(242,0,0)
GPGPU-Sim PTX: 3100000 instructions simulated : ctaid=(0,24,0) tid=(115,0,0)
GPGPU-Sim uArch: cycles simulated: 5000  inst.: 2645308 (ipc=529.1) sim_rate=330663 (inst/sec) elapsed = 0:0:00:08 / Tue Mar 10 19:24:23 2015
GPGPU-Sim PTX: 3200000 instructions simulated : ctaid=(0,27,0) tid=(188,0,0)
GPGPU-Sim PTX: 3300000 instructions simulated : ctaid=(0,60,0) tid=(207,0,0)
GPGPU-Sim PTX: 3400000 instructions simulated : ctaid=(0,1,0) tid=(20,0,0)
GPGPU-Sim PTX: 3500000 instructions simulated : ctaid=(0,9,0) tid=(159,0,0)
GPGPU-Sim uArch: cycles simulated: 5500  inst.: 3029186 (ipc=550.8) sim_rate=336576 (inst/sec) elapsed = 0:0:00:09 / Tue Mar 10 19:24:24 2015
GPGPU-Sim PTX: 3600000 instructions simulated : ctaid=(0,53,0) tid=(121,0,0)
GPGPU-Sim PTX: 3700000 instructions simulated : ctaid=(0,3,0) tid=(30,0,0)
GPGPU-Sim PTX: 3800000 instructions simulated : ctaid=(0,55,0) tid=(84,0,0)
GPGPU-Sim PTX: 3900000 instructions simulated : ctaid=(0,29,0) tid=(105,0,0)
GPGPU-Sim PTX: 4000000 instructions simulated : ctaid=(0,38,0) tid=(203,0,0)
GPGPU-Sim PTX: 4100000 instructions simulated : ctaid=(0,1,0) tid=(225,0,0)
GPGPU-Sim PTX: 4200000 instructions simulated : ctaid=(0,29,0) tid=(107,0,0)
GPGPU-Sim PTX: 4300000 instructions simulated : ctaid=(0,19,0) tid=(35,0,0)
GPGPU-Sim PTX: 4400000 instructions simulated : ctaid=(0,4,0) tid=(24,0,0)
GPGPU-Sim uArch: cycles simulated: 6500  inst.: 3791041 (ipc=583.2) sim_rate=379104 (inst/sec) elapsed = 0:0:00:10 / Tue Mar 10 19:24:25 2015
GPGPU-Sim PTX: 4500000 instructions simulated : ctaid=(0,39,0) tid=(153,0,0)
GPGPU-Sim PTX: 4600000 instructions simulated : ctaid=(0,1,0) tid=(22,0,0)
GPGPU-Sim PTX: 4700000 instructions simulated : ctaid=(0,16,0) tid=(98,0,0)
GPGPU-Sim PTX: 4800000 instructions simulated : ctaid=(0,4,0) tid=(217,0,0)
GPGPU-Sim PTX: 4900000 instructions simulated : ctaid=(0,19,0) tid=(112,0,0)
GPGPU-Sim uArch: cycles simulated: 7000  inst.: 4171722 (ipc=596.0) sim_rate=379247 (inst/sec) elapsed = 0:0:00:11 / Tue Mar 10 19:24:26 2015
GPGPU-Sim PTX: 5000000 instructions simulated : ctaid=(0,33,0) tid=(253,0,0)
GPGPU-Sim PTX: 5100000 instructions simulated : ctaid=(0,8,0) tid=(202,0,0)
GPGPU-Sim PTX: 5200000 instructions simulated : ctaid=(0,28,0) tid=(141,0,0)
GPGPU-Sim PTX: 5300000 instructions simulated : ctaid=(0,5,0) tid=(33,0,0)
GPGPU-Sim uArch: cycles simulated: 7500  inst.: 4553348 (ipc=607.1) sim_rate=379445 (inst/sec) elapsed = 0:0:00:12 / Tue Mar 10 19:24:27 2015
GPGPU-Sim PTX: 5400000 instructions simulated : ctaid=(0,4,0) tid=(104,0,0)
GPGPU-Sim PTX: 5500000 instructions simulated : ctaid=(0,37,0) tid=(42,0,0)
GPGPU-Sim PTX: 5600000 instructions simulated : ctaid=(0,59,0) tid=(153,0,0)
GPGPU-Sim PTX: 5700000 instructions simulated : ctaid=(0,26,0) tid=(35,0,0)
GPGPU-Sim PTX: 5800000 instructions simulated : ctaid=(0,41,0) tid=(81,0,0)
GPGPU-Sim uArch: cycles simulated: 8000  inst.: 4932948 (ipc=616.6) sim_rate=379457 (inst/sec) elapsed = 0:0:00:13 / Tue Mar 10 19:24:28 2015
GPGPU-Sim PTX: 5900000 instructions simulated : ctaid=(0,46,0) tid=(214,0,0)
GPGPU-Sim PTX: 6000000 instructions simulated : ctaid=(0,35,0) tid=(84,0,0)
GPGPU-Sim PTX: 6100000 instructions simulated : ctaid=(0,60,0) tid=(75,0,0)
GPGPU-Sim PTX: 6200000 instructions simulated : ctaid=(0,23,0) tid=(244,0,0)
GPGPU-Sim PTX: 6300000 instructions simulated : ctaid=(0,22,0) tid=(224,0,0)
GPGPU-Sim uArch: cycles simulated: 8500  inst.: 5316503 (ipc=625.5) sim_rate=379750 (inst/sec) elapsed = 0:0:00:14 / Tue Mar 10 19:24:29 2015
GPGPU-Sim PTX: 6400000 instructions simulated : ctaid=(0,73,0) tid=(80,0,0)
GPGPU-Sim PTX: 6500000 instructions simulated : ctaid=(0,41,0) tid=(64,0,0)
GPGPU-Sim PTX: 6600000 instructions simulated : ctaid=(0,14,0) tid=(233,0,0)
GPGPU-Sim PTX: 6700000 instructions simulated : ctaid=(0,8,0) tid=(118,0,0)
GPGPU-Sim uArch: cycles simulated: 9000  inst.: 5698905 (ipc=633.2) sim_rate=379927 (inst/sec) elapsed = 0:0:00:15 / Tue Mar 10 19:24:30 2015
GPGPU-Sim PTX: 6800000 instructions simulated : ctaid=(0,13,0) tid=(146,0,0)
GPGPU-Sim PTX: 6900000 instructions simulated : ctaid=(0,6,0) tid=(44,0,0)
GPGPU-Sim PTX: 7000000 instructions simulated : ctaid=(0,8,0) tid=(45,0,0)
GPGPU-Sim PTX: 7100000 instructions simulated : ctaid=(0,2,0) tid=(117,0,0)
GPGPU-Sim PTX: 7200000 instructions simulated : ctaid=(0,56,0) tid=(240,0,0)
GPGPU-Sim uArch: cycles simulated: 9500  inst.: 6077251 (ipc=639.7) sim_rate=379828 (inst/sec) elapsed = 0:0:00:16 / Tue Mar 10 19:24:31 2015
GPGPU-Sim PTX: 7300000 instructions simulated : ctaid=(0,32,0) tid=(221,0,0)
GPGPU-Sim PTX: 7400000 instructions simulated : ctaid=(0,14,0) tid=(100,0,0)
GPGPU-Sim PTX: 7500000 instructions simulated : ctaid=(0,29,0) tid=(210,0,0)
GPGPU-Sim PTX: 7600000 instructions simulated : ctaid=(0,12,0) tid=(148,0,0)
GPGPU-Sim uArch: cycles simulated: 10000  inst.: 6456866 (ipc=645.7) sim_rate=379815 (inst/sec) elapsed = 0:0:00:17 / Tue Mar 10 19:24:32 2015
GPGPU-Sim PTX: 7700000 instructions simulated : ctaid=(0,3,0) tid=(244,0,0)
GPGPU-Sim PTX: 7800000 instructions simulated : ctaid=(0,60,0) tid=(160,0,0)
GPGPU-Sim PTX: 7900000 instructions simulated : ctaid=(0,25,0) tid=(88,0,0)
GPGPU-Sim PTX: 8000000 instructions simulated : ctaid=(0,42,0) tid=(204,0,0)
GPGPU-Sim PTX: 8100000 instructions simulated : ctaid=(0,3,0) tid=(15,0,0)
GPGPU-Sim uArch: cycles simulated: 10500  inst.: 6836024 (ipc=651.0) sim_rate=379779 (inst/sec) elapsed = 0:0:00:18 / Tue Mar 10 19:24:33 2015
GPGPU-Sim PTX: 8200000 instructions simulated : ctaid=(0,30,0) tid=(129,0,0)
GPGPU-Sim PTX: 8300000 instructions simulated : ctaid=(0,16,0) tid=(51,0,0)
GPGPU-Sim PTX: 8400000 instructions simulated : ctaid=(0,34,0) tid=(252,0,0)
GPGPU-Sim PTX: 8500000 instructions simulated : ctaid=(0,9,0) tid=(229,0,0)
GPGPU-Sim uArch: cycles simulated: 11000  inst.: 7215518 (ipc=656.0) sim_rate=379764 (inst/sec) elapsed = 0:0:00:19 / Tue Mar 10 19:24:34 2015
GPGPU-Sim PTX: 8600000 instructions simulated : ctaid=(0,19,0) tid=(246,0,0)
GPGPU-Sim PTX: 8700000 instructions simulated : ctaid=(0,12,0) tid=(38,0,0)
GPGPU-Sim PTX: 8800000 instructions simulated : ctaid=(0,59,0) tid=(190,0,0)
GPGPU-Sim PTX: 8900000 instructions simulated : ctaid=(0,10,0) tid=(177,0,0)
GPGPU-Sim PTX: 9000000 instructions simulated : ctaid=(0,4,0) tid=(229,0,0)
GPGPU-Sim uArch: cycles simulated: 11500  inst.: 7595611 (ipc=660.5) sim_rate=379780 (inst/sec) elapsed = 0:0:00:20 / Tue Mar 10 19:24:35 2015
GPGPU-Sim PTX: 9100000 instructions simulated : ctaid=(0,86,0) tid=(158,0,0)
GPGPU-Sim PTX: 9200000 instructions simulated : ctaid=(0,29,0) tid=(109,0,0)
GPGPU-Sim PTX: 9300000 instructions simulated : ctaid=(0,0,0) tid=(90,0,0)
GPGPU-Sim PTX: 9400000 instructions simulated : ctaid=(0,66,0) tid=(149,0,0)
GPGPU-Sim uArch: cycles simulated: 12000  inst.: 7975376 (ipc=664.6) sim_rate=379779 (inst/sec) elapsed = 0:0:00:21 / Tue Mar 10 19:24:36 2015
GPGPU-Sim PTX: 9500000 instructions simulated : ctaid=(0,26,0) tid=(135,0,0)
GPGPU-Sim PTX: 9600000 instructions simulated : ctaid=(0,45,0) tid=(90,0,0)
GPGPU-Sim PTX: 9700000 instructions simulated : ctaid=(0,24,0) tid=(28,0,0)
GPGPU-Sim PTX: 9800000 instructions simulated : ctaid=(0,7,0) tid=(138,0,0)
GPGPU-Sim PTX: 9900000 instructions simulated : ctaid=(0,10,0) tid=(159,0,0)
GPGPU-Sim uArch: cycles simulated: 12500  inst.: 8354417 (ipc=668.4) sim_rate=379746 (inst/sec) elapsed = 0:0:00:22 / Tue Mar 10 19:24:37 2015
GPGPU-Sim PTX: 10000000 instructions simulated : ctaid=(0,17,0) tid=(115,0,0)
GPGPU-Sim PTX: 10100000 instructions simulated : ctaid=(0,19,0) tid=(210,0,0)
GPGPU-Sim PTX: 10200000 instructions simulated : ctaid=(0,46,0) tid=(158,0,0)
GPGPU-Sim PTX: 10300000 instructions simulated : ctaid=(0,26,0) tid=(207,0,0)
GPGPU-Sim PTX: 10400000 instructions simulated : ctaid=(0,14,0) tid=(113,0,0)
GPGPU-Sim PTX: 10500000 instructions simulated : ctaid=(0,33,0) tid=(114,0,0)
GPGPU-Sim PTX: 10600000 instructions simulated : ctaid=(0,33,0) tid=(60,0,0)
GPGPU-Sim PTX: 10700000 instructions simulated : ctaid=(0,27,0) tid=(51,0,0)
GPGPU-Sim PTX: 10800000 instructions simulated : ctaid=(0,26,0) tid=(51,0,0)
GPGPU-Sim uArch: cycles simulated: 13500  inst.: 9111750 (ipc=674.9) sim_rate=396163 (inst/sec) elapsed = 0:0:00:23 / Tue Mar 10 19:24:38 2015
GPGPU-Sim PTX: 10900000 instructions simulated : ctaid=(0,59,0) tid=(52,0,0)
GPGPU-Sim PTX: 11000000 instructions simulated : ctaid=(0,36,0) tid=(47,0,0)
GPGPU-Sim PTX: 11100000 instructions simulated : ctaid=(0,10,0) tid=(246,0,0)
GPGPU-Sim PTX: 11200000 instructions simulated : ctaid=(0,13,0) tid=(50,0,0)
GPGPU-Sim uArch: cycles simulated: 14000  inst.: 9491243 (ipc=677.9) sim_rate=395468 (inst/sec) elapsed = 0:0:00:24 / Tue Mar 10 19:24:39 2015
GPGPU-Sim PTX: 11300000 instructions simulated : ctaid=(0,34,0) tid=(52,0,0)
GPGPU-Sim PTX: 11400000 instructions simulated : ctaid=(0,39,0) tid=(61,0,0)
GPGPU-Sim PTX: 11500000 instructions simulated : ctaid=(0,8,0) tid=(184,0,0)
GPGPU-Sim PTX: 11600000 instructions simulated : ctaid=(0,8,0) tid=(69,0,0)
GPGPU-Sim PTX: 11700000 instructions simulated : ctaid=(0,6,0) tid=(148,0,0)
GPGPU-Sim uArch: cycles simulated: 14500  inst.: 9873436 (ipc=680.9) sim_rate=394937 (inst/sec) elapsed = 0:0:00:25 / Tue Mar 10 19:24:40 2015
GPGPU-Sim uArch: Shader 1 finished CTA #0 (14525,0), 5 CTAs running
GPGPU-Sim uArch: core:  1, cta: 0 initialized @(14526,0)
GPGPU-Sim PTX: 11800000 instructions simulated : ctaid=(0,30,0) tid=(6,0,0)
GPGPU-Sim PTX: 11900000 instructions simulated : ctaid=(0,43,0) tid=(2,0,0)
GPGPU-Sim PTX: 12000000 instructions simulated : ctaid=(0,7,0) tid=(198,0,0)
GPGPU-Sim PTX: 12100000 instructions simulated : ctaid=(0,10,0) tid=(146,0,0)
GPGPU-Sim uArch: cycles simulated: 15000  inst.: 10250550 (ipc=683.4) sim_rate=394251 (inst/sec) elapsed = 0:0:00:26 / Tue Mar 10 19:24:41 2015
GPGPU-Sim PTX: 12200000 instructions simulated : ctaid=(0,40,0) tid=(86,0,0)
GPGPU-Sim PTX: 12300000 instructions simulated : ctaid=(0,30,0) tid=(24,0,0)
GPGPU-Sim uArch: Shader 2 finished CTA #0 (15193,0), 5 CTAs running
GPGPU-Sim uArch: core:  2, cta: 0 initialized @(15194,0)
GPGPU-Sim PTX: 12400000 instructions simulated : ctaid=(0,20,0) tid=(173,0,0)
GPGPU-Sim PTX: 12500000 instructions simulated : ctaid=(0,49,0) tid=(245,0,0)
GPGPU-Sim PTX: 12600000 instructions simulated : ctaid=(0,60,0) tid=(161,0,0)
GPGPU-Sim uArch: cycles simulated: 15500  inst.: 10628748 (ipc=685.7) sim_rate=393657 (inst/sec) elapsed = 0:0:00:27 / Tue Mar 10 19:24:42 2015
GPGPU-Sim PTX: 12700000 instructions simulated : ctaid=(0,21,0) tid=(118,0,0)
GPGPU-Sim PTX: 12800000 instructions simulated : ctaid=(0,28,0) tid=(111,0,0)
GPGPU-Sim PTX: 12900000 instructions simulated : ctaid=(0,26,0) tid=(147,0,0)
GPGPU-Sim PTX: 13000000 instructions simulated : ctaid=(0,10,0) tid=(48,0,0)
GPGPU-Sim uArch: cycles simulated: 16000  inst.: 11003681 (ipc=687.7) sim_rate=392988 (inst/sec) elapsed = 0:0:00:28 / Tue Mar 10 19:24:43 2015
GPGPU-Sim PTX: 13100000 instructions simulated : ctaid=(0,23,0) tid=(154,0,0)
GPGPU-Sim PTX: 13200000 instructions simulated : ctaid=(0,31,0) tid=(195,0,0)
GPGPU-Sim uArch: Shader 4 finished CTA #0 (16237,0), 5 CTAs running
GPGPU-Sim uArch: core:  4, cta: 0 initialized @(16238,0)
GPGPU-Sim PTX: 13300000 instructions simulated : ctaid=(0,52,0) tid=(71,0,0)
GPGPU-Sim PTX: 13400000 instructions simulated : ctaid=(0,17,0) tid=(36,0,0)
GPGPU-Sim PTX: 13500000 instructions simulated : ctaid=(0,30,0) tid=(15,0,0)
GPGPU-Sim uArch: cycles simulated: 16500  inst.: 11382610 (ipc=689.9) sim_rate=392503 (inst/sec) elapsed = 0:0:00:29 / Tue Mar 10 19:24:44 2015
GPGPU-Sim PTX: 13600000 instructions simulated : ctaid=(0,92,0) tid=(23,0,0)
GPGPU-Sim PTX: 13700000 instructions simulated : ctaid=(0,9,0) tid=(114,0,0)
GPGPU-Sim PTX: 13800000 instructions simulated : ctaid=(0,34,0) tid=(110,0,0)
GPGPU-Sim PTX: 13900000 instructions simulated : ctaid=(0,9,0) tid=(101,0,0)
GPGPU-Sim uArch: Shader 3 finished CTA #0 (16967,0), 5 CTAs running
GPGPU-Sim uArch: core:  3, cta: 0 initialized @(16968,0)
GPGPU-Sim uArch: cycles simulated: 17000  inst.: 11763712 (ipc=692.0) sim_rate=392123 (inst/sec) elapsed = 0:0:00:30 / Tue Mar 10 19:24:45 2015
GPGPU-Sim PTX: 14000000 instructions simulated : ctaid=(0,29,0) tid=(182,0,0)
GPGPU-Sim PTX: 14100000 instructions simulated : ctaid=(0,25,0) tid=(188,0,0)
GPGPU-Sim PTX: 14200000 instructions simulated : ctaid=(0,14,0) tid=(102,0,0)
GPGPU-Sim PTX: 14300000 instructions simulated : ctaid=(0,22,0) tid=(30,0,0)
GPGPU-Sim PTX: 14400000 instructions simulated : ctaid=(0,22,0) tid=(7,0,0)
GPGPU-Sim uArch: cycles simulated: 17500  inst.: 12141553 (ipc=693.8) sim_rate=391663 (inst/sec) elapsed = 0:0:00:31 / Tue Mar 10 19:24:46 2015
GPGPU-Sim PTX: 14500000 instructions simulated : ctaid=(0,24,0) tid=(190,0,0)
GPGPU-Sim PTX: 14600000 instructions simulated : ctaid=(0,24,0) tid=(97,0,0)
GPGPU-Sim PTX: 14700000 instructions simulated : ctaid=(0,17,0) tid=(105,0,0)
GPGPU-Sim uArch: Shader 5 finished CTA #0 (17820,0), 5 CTAs running
GPGPU-Sim uArch: core:  5, cta: 0 initialized @(17821,0)
GPGPU-Sim PTX: 14800000 instructions simulated : ctaid=(0,14,0) tid=(112,0,0)
GPGPU-Sim uArch: cycles simulated: 18000  inst.: 12520227 (ipc=695.6) sim_rate=391257 (inst/sec) elapsed = 0:0:00:32 / Tue Mar 10 19:24:47 2015
GPGPU-Sim PTX: 14900000 instructions simulated : ctaid=(0,54,0) tid=(24,0,0)
GPGPU-Sim PTX: 15000000 instructions simulated : ctaid=(0,11,0) tid=(164,0,0)
GPGPU-Sim PTX: 15100000 instructions simulated : ctaid=(0,19,0) tid=(215,0,0)
GPGPU-Sim PTX: 15200000 instructions simulated : ctaid=(0,29,0) tid=(246,0,0)
GPGPU-Sim PTX: 15300000 instructions simulated : ctaid=(0,13,0) tid=(6,0,0)
GPGPU-Sim uArch: cycles simulated: 18500  inst.: 12897419 (ipc=697.2) sim_rate=390830 (inst/sec) elapsed = 0:0:00:33 / Tue Mar 10 19:24:48 2015
GPGPU-Sim PTX: 15400000 instructions simulated : ctaid=(0,46,0) tid=(118,0,0)
GPGPU-Sim PTX: 15500000 instructions simulated : ctaid=(0,23,0) tid=(169,0,0)
GPGPU-Sim PTX: 15600000 instructions simulated : ctaid=(0,34,0) tid=(77,0,0)
GPGPU-Sim uArch: Shader 6 finished CTA #0 (18831,0), 5 CTAs running
GPGPU-Sim uArch: core:  6, cta: 0 initialized @(18832,0)
GPGPU-Sim PTX: 15700000 instructions simulated : ctaid=(0,31,0) tid=(114,0,0)
GPGPU-Sim uArch: cycles simulated: 19000  inst.: 13275991 (ipc=698.7) sim_rate=390470 (inst/sec) elapsed = 0:0:00:34 / Tue Mar 10 19:24:49 2015
GPGPU-Sim PTX: 15800000 instructions simulated : ctaid=(0,14,0) tid=(154,0,0)
GPGPU-Sim PTX: 15900000 instructions simulated : ctaid=(0,31,0) tid=(170,0,0)
GPGPU-Sim PTX: 16000000 instructions simulated : ctaid=(0,23,0) tid=(237,0,0)
GPGPU-Sim PTX: 16100000 instructions simulated : ctaid=(0,9,0) tid=(242,0,0)
GPGPU-Sim PTX: 16200000 instructions simulated : ctaid=(0,23,0) tid=(26,0,0)
GPGPU-Sim PTX: 16300000 instructions simulated : ctaid=(0,58,0) tid=(215,0,0)
GPGPU-Sim PTX: 16400000 instructions simulated : ctaid=(0,38,0) tid=(255,0,0)
GPGPU-Sim PTX: 16500000 instructions simulated : ctaid=(0,29,0) tid=(91,0,0)
GPGPU-Sim uArch: Shader 7 finished CTA #0 (19840,0), 5 CTAs running
GPGPU-Sim uArch: core:  7, cta: 0 initialized @(19841,0)
GPGPU-Sim PTX: 16600000 instructions simulated : ctaid=(0,10,0) tid=(234,0,0)
GPGPU-Sim uArch: cycles simulated: 20000  inst.: 14037914 (ipc=701.9) sim_rate=401083 (inst/sec) elapsed = 0:0:00:35 / Tue Mar 10 19:24:50 2015
GPGPU-Sim PTX: 16700000 instructions simulated : ctaid=(0,50,0) tid=(6,0,0)
GPGPU-Sim PTX: 16800000 instructions simulated : ctaid=(0,35,0) tid=(60,0,0)
GPGPU-Sim PTX: 16900000 instructions simulated : ctaid=(0,95,0) tid=(154,0,0)
GPGPU-Sim PTX: 17000000 instructions simulated : ctaid=(0,41,0) tid=(184,0,0)
GPGPU-Sim PTX: 17100000 instructions simulated : ctaid=(0,20,0) tid=(249,0,0)
GPGPU-Sim uArch: Shader 11 finished CTA #0 (20479,0), 5 CTAs running
GPGPU-Sim uArch: core: 11, cta: 0 initialized @(20480,0)
GPGPU-Sim uArch: cycles simulated: 20500  inst.: 14413951 (ipc=703.1) sim_rate=400387 (inst/sec) elapsed = 0:0:00:36 / Tue Mar 10 19:24:51 2015
GPGPU-Sim PTX: 17200000 instructions simulated : ctaid=(0,18,0) tid=(11,0,0)
GPGPU-Sim PTX: 17300000 instructions simulated : ctaid=(0,40,0) tid=(124,0,0)
GPGPU-Sim uArch: Shader 0 finished CTA #0 (20774,0), 5 CTAs running
GPGPU-Sim uArch: core:  0, cta: 0 initialized @(20775,0)
GPGPU-Sim PTX: 17400000 instructions simulated : ctaid=(0,11,0) tid=(255,0,0)
GPGPU-Sim uArch: Shader 10 finished CTA #0 (20817,0), 5 CTAs running
GPGPU-Sim uArch: core: 10, cta: 0 initialized @(20818,0)
GPGPU-Sim PTX: 17500000 instructions simulated : ctaid=(0,83,0) tid=(221,0,0)
GPGPU-Sim PTX: 17600000 instructions simulated : ctaid=(0,18,0) tid=(40,0,0)
GPGPU-Sim uArch: cycles simulated: 21000  inst.: 14792106 (ipc=704.4) sim_rate=399786 (inst/sec) elapsed = 0:0:00:37 / Tue Mar 10 19:24:52 2015
GPGPU-Sim PTX: 17700000 instructions simulated : ctaid=(0,17,0) tid=(111,0,0)
GPGPU-Sim uArch: Shader 8 finished CTA #0 (21122,0), 5 CTAs running
GPGPU-Sim uArch: core:  8, cta: 0 initialized @(21123,0)
GPGPU-Sim PTX: 17800000 instructions simulated : ctaid=(0,54,0) tid=(117,0,0)
GPGPU-Sim uArch: Shader 9 finished CTA #0 (21259,0), 5 CTAs running
GPGPU-Sim uArch: core:  9, cta: 0 initialized @(21260,0)
GPGPU-Sim PTX: 17900000 instructions simulated : ctaid=(0,30,0) tid=(118,0,0)
GPGPU-Sim PTX: 18000000 instructions simulated : ctaid=(0,37,0) tid=(235,0,0)
GPGPU-Sim uArch: Shader 13 finished CTA #0 (21450,0), 5 CTAs running
GPGPU-Sim uArch: core: 13, cta: 0 initialized @(21451,0)
GPGPU-Sim uArch: Shader 14 finished CTA #0 (21467,0), 5 CTAs running
GPGPU-Sim uArch: core: 14, cta: 0 initialized @(21468,0)
GPGPU-Sim uArch: cycles simulated: 21500  inst.: 15167631 (ipc=705.5) sim_rate=399148 (inst/sec) elapsed = 0:0:00:38 / Tue Mar 10 19:24:53 2015
GPGPU-Sim PTX: 18100000 instructions simulated : ctaid=(0,25,0) tid=(204,0,0)
GPGPU-Sim PTX: 18200000 instructions simulated : ctaid=(0,26,0) tid=(253,0,0)
GPGPU-Sim PTX: 18300000 instructions simulated : ctaid=(0,83,0) tid=(141,0,0)
GPGPU-Sim PTX: 18400000 instructions simulated : ctaid=(0,21,0) tid=(129,0,0)
GPGPU-Sim uArch: cycles simulated: 22000  inst.: 15544075 (ipc=706.5) sim_rate=398566 (inst/sec) elapsed = 0:0:00:39 / Tue Mar 10 19:24:54 2015
GPGPU-Sim PTX: 18500000 instructions simulated : ctaid=(0,19,0) tid=(145,0,0)
GPGPU-Sim PTX: 18600000 instructions simulated : ctaid=(0,44,0) tid=(111,0,0)
GPGPU-Sim PTX: 18700000 instructions simulated : ctaid=(0,17,0) tid=(245,0,0)
GPGPU-Sim uArch: Shader 12 finished CTA #0 (22344,0), 5 CTAs running
GPGPU-Sim uArch: core: 12, cta: 0 initialized @(22345,0)
GPGPU-Sim PTX: 18800000 instructions simulated : ctaid=(0,88,0) tid=(190,0,0)
GPGPU-Sim PTX: 18900000 instructions simulated : ctaid=(0,36,0) tid=(170,0,0)
GPGPU-Sim uArch: cycles simulated: 22500  inst.: 15894752 (ipc=706.4) sim_rate=397368 (inst/sec) elapsed = 0:0:00:40 / Tue Mar 10 19:24:55 2015
GPGPU-Sim PTX: 19000000 instructions simulated : ctaid=(0,19,0) tid=(80,0,0)
GPGPU-Sim PTX: 19100000 instructions simulated : ctaid=(0,43,0) tid=(245,0,0)
GPGPU-Sim PTX: 19200000 instructions simulated : ctaid=(0,42,0) tid=(175,0,0)
GPGPU-Sim PTX: 19300000 instructions simulated : ctaid=(0,36,0) tid=(15,0,0)
GPGPU-Sim uArch: cycles simulated: 23000  inst.: 16264014 (ipc=707.1) sim_rate=396683 (inst/sec) elapsed = 0:0:00:41 / Tue Mar 10 19:24:56 2015
GPGPU-Sim PTX: 19400000 instructions simulated : ctaid=(0,28,0) tid=(89,0,0)
GPGPU-Sim PTX: 19500000 instructions simulated : ctaid=(0,19,0) tid=(231,0,0)
GPGPU-Sim PTX: 19600000 instructions simulated : ctaid=(0,49,0) tid=(101,0,0)
GPGPU-Sim PTX: 19700000 instructions simulated : ctaid=(0,36,0) tid=(34,0,0)
GPGPU-Sim PTX: 19800000 instructions simulated : ctaid=(0,18,0) tid=(20,0,0)
GPGPU-Sim uArch: cycles simulated: 23500  inst.: 16642757 (ipc=708.2) sim_rate=396256 (inst/sec) elapsed = 0:0:00:42 / Tue Mar 10 19:24:57 2015
GPGPU-Sim PTX: 19900000 instructions simulated : ctaid=(0,38,0) tid=(226,0,0)
GPGPU-Sim PTX: 20000000 instructions simulated : ctaid=(0,26,0) tid=(71,0,0)
GPGPU-Sim PTX: 20100000 instructions simulated : ctaid=(0,42,0) tid=(31,0,0)
GPGPU-Sim PTX: 20200000 instructions simulated : ctaid=(0,23,0) tid=(97,0,0)
GPGPU-Sim uArch: cycles simulated: 24000  inst.: 17017893 (ipc=709.1) sim_rate=395764 (inst/sec) elapsed = 0:0:00:43 / Tue Mar 10 19:24:58 2015
GPGPU-Sim uArch: Shader 5 finished CTA #1 (24011,0), 5 CTAs running
GPGPU-Sim uArch: core:  5, cta: 1 initialized @(24012,0)
GPGPU-Sim PTX: 20300000 instructions simulated : ctaid=(0,21,0) tid=(189,0,0)
GPGPU-Sim PTX: 20400000 instructions simulated : ctaid=(0,43,0) tid=(36,0,0)
GPGPU-Sim uArch: Shader 6 finished CTA #1 (24161,0), 5 CTAs running
GPGPU-Sim uArch: core:  6, cta: 1 initialized @(24162,0)
GPGPU-Sim uArch: Shader 4 finished CTA #1 (24203,0), 5 CTAs running
GPGPU-Sim uArch: core:  4, cta: 1 initialized @(24204,0)
GPGPU-Sim PTX: 20500000 instructions simulated : ctaid=(0,38,0) tid=(164,0,0)
GPGPU-Sim PTX: 20600000 instructions simulated : ctaid=(0,44,0) tid=(115,0,0)
GPGPU-Sim uArch: Shader 10 finished CTA #1 (24395,0), 5 CTAs running
GPGPU-Sim uArch: core: 10, cta: 1 initialized @(24396,0)
GPGPU-Sim uArch: Shader 7 finished CTA #1 (24483,0), 5 CTAs running
GPGPU-Sim uArch: Shader 9 finished CTA #1 (24483,0), 5 CTAs running
GPGPU-Sim uArch: core:  7, cta: 1 initialized @(24484,0)
GPGPU-Sim uArch: core:  9, cta: 1 initialized @(24484,0)
GPGPU-Sim PTX: 20700000 instructions simulated : ctaid=(0,52,0) tid=(117,0,0)
GPGPU-Sim uArch: cycles simulated: 24500  inst.: 17389109 (ipc=709.8) sim_rate=395207 (inst/sec) elapsed = 0:0:00:44 / Tue Mar 10 19:24:59 2015
GPGPU-Sim uArch: Shader 0 finished CTA #1 (24545,0), 5 CTAs running
GPGPU-Sim uArch: core:  0, cta: 1 initialized @(24546,0)
GPGPU-Sim uArch: Shader 13 finished CTA #1 (24549,0), 5 CTAs running
GPGPU-Sim uArch: core: 13, cta: 1 initialized @(24550,0)
GPGPU-Sim uArch: Shader 11 finished CTA #1 (24570,0), 5 CTAs running
GPGPU-Sim uArch: core: 11, cta: 1 initialized @(24571,0)
GPGPU-Sim uArch: Shader 14 finished CTA #1 (24579,0), 5 CTAs running
GPGPU-Sim uArch: core: 14, cta: 1 initialized @(24580,0)
GPGPU-Sim uArch: Shader 8 finished CTA #1 (24591,0), 5 CTAs running
GPGPU-Sim uArch: core:  8, cta: 1 initialized @(24592,0)
GPGPU-Sim PTX: 20800000 instructions simulated : ctaid=(0,26,0) tid=(174,0,0)
GPGPU-Sim PTX: 20900000 instructions simulated : ctaid=(0,55,0) tid=(96,0,0)
GPGPU-Sim uArch: Shader 2 finished CTA #1 (24760,0), 5 CTAs running
GPGPU-Sim uArch: core:  2, cta: 1 initialized @(24761,0)
GPGPU-Sim PTX: 21000000 instructions simulated : ctaid=(0,34,0) tid=(21,0,0)
GPGPU-Sim PTX: 21100000 instructions simulated : ctaid=(0,43,0) tid=(244,0,0)
GPGPU-Sim uArch: cycles simulated: 25000  inst.: 17770565 (ipc=710.8) sim_rate=394901 (inst/sec) elapsed = 0:0:00:45 / Tue Mar 10 19:25:00 2015
GPGPU-Sim PTX: 21200000 instructions simulated : ctaid=(0,76,0) tid=(25,0,0)
GPGPU-Sim uArch: Shader 1 finished CTA #1 (25126,0), 5 CTAs running
GPGPU-Sim uArch: core:  1, cta: 1 initialized @(25127,0)
GPGPU-Sim PTX: 21300000 instructions simulated : ctaid=(0,52,0) tid=(51,0,0)
GPGPU-Sim PTX: 21400000 instructions simulated : ctaid=(0,45,0) tid=(217,0,0)
GPGPU-Sim uArch: Shader 3 finished CTA #1 (25300,0), 5 CTAs running
GPGPU-Sim uArch: core:  3, cta: 1 initialized @(25301,0)
GPGPU-Sim PTX: 21500000 instructions simulated : ctaid=(0,50,0) tid=(12,0,0)
GPGPU-Sim PTX: 21600000 instructions simulated : ctaid=(0,63,0) tid=(241,0,0)
GPGPU-Sim uArch: cycles simulated: 25500  inst.: 18147722 (ipc=711.7) sim_rate=394515 (inst/sec) elapsed = 0:0:00:46 / Tue Mar 10 19:25:01 2015
GPGPU-Sim uArch: Shader 12 finished CTA #1 (25579,0), 5 CTAs running
GPGPU-Sim uArch: core: 12, cta: 1 initialized @(25580,0)
GPGPU-Sim PTX: 21700000 instructions simulated : ctaid=(0,54,0) tid=(177,0,0)
GPGPU-Sim PTX: 21800000 instructions simulated : ctaid=(0,39,0) tid=(101,0,0)
GPGPU-Sim PTX: 21900000 instructions simulated : ctaid=(0,69,0) tid=(192,0,0)
GPGPU-Sim PTX: 22000000 instructions simulated : ctaid=(0,39,0) tid=(188,0,0)
GPGPU-Sim uArch: cycles simulated: 26000  inst.: 18524961 (ipc=712.5) sim_rate=394148 (inst/sec) elapsed = 0:0:00:47 / Tue Mar 10 19:25:02 2015
GPGPU-Sim PTX: 22100000 instructions simulated : ctaid=(0,72,0) tid=(158,0,0)
GPGPU-Sim PTX: 22200000 instructions simulated : ctaid=(0,54,0) tid=(13,0,0)
GPGPU-Sim PTX: 22300000 instructions simulated : ctaid=(0,68,0) tid=(46,0,0)
GPGPU-Sim PTX: 22400000 instructions simulated : ctaid=(0,35,0) tid=(167,0,0)
GPGPU-Sim PTX: 22500000 instructions simulated : ctaid=(0,42,0) tid=(232,0,0)
GPGPU-Sim uArch: cycles simulated: 26500  inst.: 18902610 (ipc=713.3) sim_rate=393804 (inst/sec) elapsed = 0:0:00:48 / Tue Mar 10 19:25:03 2015
GPGPU-Sim PTX: 22600000 instructions simulated : ctaid=(0,112,0) tid=(222,0,0)
GPGPU-Sim PTX: 22700000 instructions simulated : ctaid=(0,41,0) tid=(225,0,0)
GPGPU-Sim PTX: 22800000 instructions simulated : ctaid=(0,49,0) tid=(168,0,0)
GPGPU-Sim PTX: 22900000 instructions simulated : ctaid=(0,40,0) tid=(176,0,0)
GPGPU-Sim uArch: cycles simulated: 27000  inst.: 19278698 (ipc=714.0) sim_rate=393442 (inst/sec) elapsed = 0:0:00:49 / Tue Mar 10 19:25:04 2015
GPGPU-Sim PTX: 23000000 instructions simulated : ctaid=(0,40,0) tid=(146,0,0)
GPGPU-Sim PTX: 23100000 instructions simulated : ctaid=(0,70,0) tid=(76,0,0)
GPGPU-Sim PTX: 23200000 instructions simulated : ctaid=(0,48,0) tid=(96,0,0)
GPGPU-Sim PTX: 23300000 instructions simulated : ctaid=(0,32,0) tid=(75,0,0)
GPGPU-Sim PTX: 23400000 instructions simulated : ctaid=(0,59,0) tid=(188,0,0)
GPGPU-Sim PTX: 23500000 instructions simulated : ctaid=(0,72,0) tid=(48,0,0)
GPGPU-Sim PTX: 23600000 instructions simulated : ctaid=(0,41,0) tid=(206,0,0)
GPGPU-Sim PTX: 23700000 instructions simulated : ctaid=(0,55,0) tid=(15,0,0)
GPGPU-Sim PTX: 23800000 instructions simulated : ctaid=(0,118,0) tid=(86,0,0)
GPGPU-Sim uArch: cycles simulated: 28000  inst.: 20027336 (ipc=715.3) sim_rate=400546 (inst/sec) elapsed = 0:0:00:50 / Tue Mar 10 19:25:05 2015
GPGPU-Sim PTX: 23900000 instructions simulated : ctaid=(0,49,0) tid=(75,0,0)
GPGPU-Sim PTX: 24000000 instructions simulated : ctaid=(0,53,0) tid=(105,0,0)
GPGPU-Sim PTX: 24100000 instructions simulated : ctaid=(0,34,0) tid=(193,0,0)
GPGPU-Sim PTX: 24200000 instructions simulated : ctaid=(0,58,0) tid=(243,0,0)
GPGPU-Sim PTX: 24300000 instructions simulated : ctaid=(0,96,0) tid=(179,0,0)
GPGPU-Sim uArch: cycles simulated: 28500  inst.: 20401109 (ipc=715.8) sim_rate=400021 (inst/sec) elapsed = 0:0:00:51 / Tue Mar 10 19:25:06 2015
GPGPU-Sim PTX: 24400000 instructions simulated : ctaid=(0,68,0) tid=(123,0,0)
GPGPU-Sim uArch: Shader 1 finished CTA #2 (28662,0), 5 CTAs running
GPGPU-Sim uArch: core:  1, cta: 2 initialized @(28663,0)
GPGPU-Sim uArch: Shader 2 finished CTA #2 (28692,0), 5 CTAs running
GPGPU-Sim uArch: core:  2, cta: 2 initialized @(28693,0)
GPGPU-Sim PTX: 24500000 instructions simulated : ctaid=(0,42,0) tid=(215,0,0)
GPGPU-Sim PTX: 24600000 instructions simulated : ctaid=(0,76,0) tid=(66,0,0)
GPGPU-Sim PTX: 24700000 instructions simulated : ctaid=(0,88,0) tid=(246,0,0)
GPGPU-Sim uArch: cycles simulated: 29000  inst.: 20759491 (ipc=715.8) sim_rate=399220 (inst/sec) elapsed = 0:0:00:52 / Tue Mar 10 19:25:07 2015
GPGPU-Sim PTX: 24800000 instructions simulated : ctaid=(0,61,0) tid=(82,0,0)
GPGPU-Sim uArch: Shader 4 finished CTA #2 (29107,0), 5 CTAs running
GPGPU-Sim uArch: core:  4, cta: 2 initialized @(29108,0)
GPGPU-Sim PTX: 24900000 instructions simulated : ctaid=(0,57,0) tid=(86,0,0)
GPGPU-Sim PTX: 25000000 instructions simulated : ctaid=(0,53,0) tid=(241,0,0)
GPGPU-Sim PTX: 25100000 instructions simulated : ctaid=(0,59,0) tid=(25,0,0)
GPGPU-Sim uArch: cycles simulated: 29500  inst.: 21123569 (ipc=716.1) sim_rate=398557 (inst/sec) elapsed = 0:0:00:53 / Tue Mar 10 19:25:08 2015
GPGPU-Sim PTX: 25200000 instructions simulated : ctaid=(0,50,0) tid=(193,0,0)
GPGPU-Sim uArch: Shader 5 finished CTA #2 (29647,0), 5 CTAs running
GPGPU-Sim uArch: core:  5, cta: 2 initialized @(29648,0)
GPGPU-Sim PTX: 25300000 instructions simulated : ctaid=(0,45,0) tid=(252,0,0)
GPGPU-Sim uArch: Shader 3 finished CTA #2 (29746,0), 5 CTAs running
GPGPU-Sim uArch: core:  3, cta: 2 initialized @(29747,0)
GPGPU-Sim PTX: 25400000 instructions simulated : ctaid=(0,43,0) tid=(215,0,0)
GPGPU-Sim PTX: 25500000 instructions simulated : ctaid=(0,43,0) tid=(26,0,0)
GPGPU-Sim PTX: 25600000 instructions simulated : ctaid=(0,37,0) tid=(124,0,0)
GPGPU-Sim uArch: cycles simulated: 30000  inst.: 21495559 (ipc=716.5) sim_rate=398065 (inst/sec) elapsed = 0:0:00:54 / Tue Mar 10 19:25:09 2015
GPGPU-Sim PTX: 25700000 instructions simulated : ctaid=(0,70,0) tid=(128,0,0)
GPGPU-Sim uArch: Shader 6 finished CTA #2 (30175,0), 5 CTAs running
GPGPU-Sim uArch: core:  6, cta: 2 initialized @(30176,0)
GPGPU-Sim PTX: 25800000 instructions simulated : ctaid=(0,68,0) tid=(253,0,0)
GPGPU-Sim PTX: 25900000 instructions simulated : ctaid=(0,78,0) tid=(60,0,0)
GPGPU-Sim PTX: 26000000 instructions simulated : ctaid=(0,42,0) tid=(93,0,0)
GPGPU-Sim uArch: cycles simulated: 30500  inst.: 21869686 (ipc=717.0) sim_rate=397630 (inst/sec) elapsed = 0:0:00:55 / Tue Mar 10 19:25:10 2015
GPGPU-Sim uArch: Shader 7 finished CTA #2 (30518,0), 5 CTAs running
GPGPU-Sim uArch: core:  7, cta: 2 initialized @(30519,0)
GPGPU-Sim PTX: 26100000 instructions simulated : ctaid=(0,78,0) tid=(101,0,0)
GPGPU-Sim PTX: 26200000 instructions simulated : ctaid=(0,38,0) tid=(195,0,0)
GPGPU-Sim PTX: 26300000 instructions simulated : ctaid=(0,60,0) tid=(226,0,0)
GPGPU-Sim PTX: 26400000 instructions simulated : ctaid=(0,71,0) tid=(4,0,0)
GPGPU-Sim uArch: Shader 13 finished CTA #2 (30983,0), 5 CTAs running
GPGPU-Sim uArch: core: 13, cta: 2 initialized @(30984,0)
GPGPU-Sim uArch: cycles simulated: 31000  inst.: 22238952 (ipc=717.4) sim_rate=397124 (inst/sec) elapsed = 0:0:00:56 / Tue Mar 10 19:25:11 2015
GPGPU-Sim uArch: Shader 9 finished CTA #2 (31001,0), 5 CTAs running
GPGPU-Sim uArch: core:  9, cta: 2 initialized @(31002,0)
GPGPU-Sim PTX: 26500000 instructions simulated : ctaid=(0,128,0) tid=(66,0,0)
GPGPU-Sim uArch: Shader 8 finished CTA #2 (31066,0), 5 CTAs running
GPGPU-Sim uArch: core:  8, cta: 2 initialized @(31067,0)
GPGPU-Sim PTX: 26600000 instructions simulated : ctaid=(0,71,0) tid=(28,0,0)
GPGPU-Sim PTX: 26700000 instructions simulated : ctaid=(0,70,0) tid=(225,0,0)
GPGPU-Sim uArch: Shader 11 finished CTA #2 (31283,0), 5 CTAs running
GPGPU-Sim uArch: core: 11, cta: 2 initialized @(31284,0)
GPGPU-Sim PTX: 26800000 instructions simulated : ctaid=(0,77,0) tid=(127,0,0)
GPGPU-Sim uArch: Shader 0 finished CTA #2 (31367,0), 5 CTAs running
GPGPU-Sim uArch: core:  0, cta: 2 initialized @(31368,0)
GPGPU-Sim uArch: Shader 10 finished CTA #2 (31382,0), 5 CTAs running
GPGPU-Sim uArch: core: 10, cta: 2 initialized @(31383,0)
GPGPU-Sim uArch: Shader 14 finished CTA #2 (31401,0), 5 CTAs running
GPGPU-Sim uArch: core: 14, cta: 2 initialized @(31402,0)
GPGPU-Sim PTX: 26900000 instructions simulated : ctaid=(0,51,0) tid=(237,0,0)
GPGPU-Sim uArch: cycles simulated: 31500  inst.: 22613439 (ipc=717.9) sim_rate=396727 (inst/sec) elapsed = 0:0:00:57 / Tue Mar 10 19:25:12 2015
GPGPU-Sim PTX: 27000000 instructions simulated : ctaid=(0,54,0) tid=(181,0,0)
GPGPU-Sim uArch: Shader 12 finished CTA #2 (31598,0), 5 CTAs running
GPGPU-Sim uArch: core: 12, cta: 2 initialized @(31599,0)
GPGPU-Sim PTX: 27100000 instructions simulated : ctaid=(0,73,0) tid=(248,0,0)
GPGPU-Sim PTX: 27200000 instructions simulated : ctaid=(0,78,0) tid=(163,0,0)
GPGPU-Sim PTX: 27300000 instructions simulated : ctaid=(0,66,0) tid=(167,0,0)
GPGPU-Sim uArch: cycles simulated: 32000  inst.: 22994749 (ipc=718.6) sim_rate=396461 (inst/sec) elapsed = 0:0:00:58 / Tue Mar 10 19:25:13 2015
GPGPU-Sim PTX: 27400000 instructions simulated : ctaid=(0,46,0) tid=(174,0,0)
GPGPU-Sim PTX: 27500000 instructions simulated : ctaid=(0,51,0) tid=(144,0,0)
GPGPU-Sim PTX: 27600000 instructions simulated : ctaid=(0,57,0) tid=(29,0,0)
GPGPU-Sim PTX: 27700000 instructions simulated : ctaid=(0,79,0) tid=(59,0,0)
GPGPU-Sim PTX: 27800000 instructions simulated : ctaid=(0,56,0) tid=(53,0,0)
GPGPU-Sim uArch: cycles simulated: 32500  inst.: 23374921 (ipc=719.2) sim_rate=396185 (inst/sec) elapsed = 0:0:00:59 / Tue Mar 10 19:25:14 2015
GPGPU-Sim PTX: 27900000 instructions simulated : ctaid=(0,45,0) tid=(217,0,0)
GPGPU-Sim PTX: 28000000 instructions simulated : ctaid=(0,74,0) tid=(161,0,0)
GPGPU-Sim PTX: 28100000 instructions simulated : ctaid=(0,51,0) tid=(171,0,0)
GPGPU-Sim PTX: 28200000 instructions simulated : ctaid=(0,65,0) tid=(28,0,0)
GPGPU-Sim PTX: 28300000 instructions simulated : ctaid=(0,101,0) tid=(4,0,0)
GPGPU-Sim uArch: cycles simulated: 33000  inst.: 23756733 (ipc=719.9) sim_rate=395945 (inst/sec) elapsed = 0:0:01:00 / Tue Mar 10 19:25:15 2015
GPGPU-Sim PTX: 28400000 instructions simulated : ctaid=(0,98,0) tid=(182,0,0)
GPGPU-Sim PTX: 28500000 instructions simulated : ctaid=(0,53,0) tid=(226,0,0)
GPGPU-Sim PTX: 28600000 instructions simulated : ctaid=(0,71,0) tid=(1,0,0)
GPGPU-Sim PTX: 28700000 instructions simulated : ctaid=(0,68,0) tid=(238,0,0)
GPGPU-Sim uArch: cycles simulated: 33500  inst.: 24137674 (ipc=720.5) sim_rate=395699 (inst/sec) elapsed = 0:0:01:01 / Tue Mar 10 19:25:16 2015
GPGPU-Sim PTX: 28800000 instructions simulated : ctaid=(0,60,0) tid=(66,0,0)
GPGPU-Sim PTX: 28900000 instructions simulated : ctaid=(0,47,0) tid=(92,0,0)
GPGPU-Sim PTX: 29000000 instructions simulated : ctaid=(0,63,0) tid=(175,0,0)
GPGPU-Sim PTX: 29100000 instructions simulated : ctaid=(0,80,0) tid=(51,0,0)
GPGPU-Sim PTX: 29200000 instructions simulated : ctaid=(0,72,0) tid=(121,0,0)
GPGPU-Sim uArch: Shader 1 finished CTA #3 (34039,0), 5 CTAs running
GPGPU-Sim uArch: core:  1, cta: 3 initialized @(34040,0)
GPGPU-Sim PTX: 29300000 instructions simulated : ctaid=(0,66,0) tid=(186,0,0)
GPGPU-Sim PTX: 29400000 instructions simulated : ctaid=(0,56,0) tid=(9,0,0)
GPGPU-Sim PTX: 29500000 instructions simulated : ctaid=(0,67,0) tid=(46,0,0)
GPGPU-Sim PTX: 29600000 instructions simulated : ctaid=(0,52,0) tid=(216,0,0)
GPGPU-Sim uArch: cycles simulated: 34500  inst.: 24899414 (ipc=721.7) sim_rate=401603 (inst/sec) elapsed = 0:0:01:02 / Tue Mar 10 19:25:17 2015
GPGPU-Sim PTX: 29700000 instructions simulated : ctaid=(0,70,0) tid=(253,0,0)
GPGPU-Sim PTX: 29800000 instructions simulated : ctaid=(0,81,0) tid=(107,0,0)
GPGPU-Sim PTX: 29900000 instructions simulated : ctaid=(0,55,0) tid=(2,0,0)
GPGPU-Sim uArch: Shader 2 finished CTA #3 (34815,0), 5 CTAs running
GPGPU-Sim uArch: core:  2, cta: 3 initialized @(34816,0)
GPGPU-Sim PTX: 30000000 instructions simulated : ctaid=(0,49,0) tid=(47,0,0)
GPGPU-Sim PTX: 30100000 instructions simulated : ctaid=(0,58,0) tid=(27,0,0)
GPGPU-Sim uArch: cycles simulated: 35000  inst.: 25278120 (ipc=722.2) sim_rate=401240 (inst/sec) elapsed = 0:0:01:03 / Tue Mar 10 19:25:18 2015
GPGPU-Sim PTX: 30200000 instructions simulated : ctaid=(0,71,0) tid=(74,0,0)
GPGPU-Sim PTX: 30300000 instructions simulated : ctaid=(0,67,0) tid=(219,0,0)
GPGPU-Sim PTX: 30400000 instructions simulated : ctaid=(0,82,0) tid=(54,0,0)
GPGPU-Sim PTX: 30500000 instructions simulated : ctaid=(0,64,0) tid=(110,0,0)
GPGPU-Sim uArch: cycles simulated: 35500  inst.: 25657997 (ipc=722.8) sim_rate=400906 (inst/sec) elapsed = 0:0:01:04 / Tue Mar 10 19:25:19 2015
GPGPU-Sim PTX: 30600000 instructions simulated : ctaid=(0,75,0) tid=(229,0,0)
GPGPU-Sim uArch: Shader 3 finished CTA #3 (35610,0), 5 CTAs running
GPGPU-Sim uArch: core:  3, cta: 3 initialized @(35611,0)
GPGPU-Sim PTX: 30700000 instructions simulated : ctaid=(0,51,0) tid=(173,0,0)
GPGPU-Sim PTX: 30800000 instructions simulated : ctaid=(0,97,0) tid=(61,0,0)
GPGPU-Sim PTX: 30900000 instructions simulated : ctaid=(0,118,0) tid=(121,0,0)
GPGPU-Sim uArch: Shader 4 finished CTA #3 (35880,0), 5 CTAs running
GPGPU-Sim uArch: core:  4, cta: 3 initialized @(35881,0)
GPGPU-Sim PTX: 31000000 instructions simulated : ctaid=(0,86,0) tid=(140,0,0)
GPGPU-Sim uArch: cycles simulated: 36000  inst.: 26039367 (ipc=723.3) sim_rate=400605 (inst/sec) elapsed = 0:0:01:05 / Tue Mar 10 19:25:20 2015
GPGPU-Sim PTX: 31100000 instructions simulated : ctaid=(0,66,0) tid=(10,0,0)
GPGPU-Sim PTX: 31200000 instructions simulated : ctaid=(0,50,0) tid=(37,0,0)
GPGPU-Sim PTX: 31300000 instructions simulated : ctaid=(0,63,0) tid=(183,0,0)
GPGPU-Sim PTX: 31400000 instructions simulated : ctaid=(0,61,0) tid=(185,0,0)
GPGPU-Sim uArch: Shader 5 finished CTA #3 (36440,0), 5 CTAs running
GPGPU-Sim uArch: core:  5, cta: 3 initialized @(36441,0)
GPGPU-Sim uArch: cycles simulated: 36500  inst.: 26415340 (ipc=723.7) sim_rate=400232 (inst/sec) elapsed = 0:0:01:06 / Tue Mar 10 19:25:21 2015
GPGPU-Sim PTX: 31500000 instructions simulated : ctaid=(0,54,0) tid=(245,0,0)
GPGPU-Sim PTX: 31600000 instructions simulated : ctaid=(0,97,0) tid=(202,0,0)
GPGPU-Sim PTX: 31700000 instructions simulated : ctaid=(0,95,0) tid=(179,0,0)
GPGPU-Sim PTX: 31800000 instructions simulated : ctaid=(0,79,0) tid=(110,0,0)
GPGPU-Sim uArch: Shader 6 finished CTA #3 (36877,0), 5 CTAs running
GPGPU-Sim uArch: core:  6, cta: 3 initialized @(36878,0)
GPGPU-Sim PTX: 31900000 instructions simulated : ctaid=(0,73,0) tid=(9,0,0)
GPGPU-Sim PTX: 32000000 instructions simulated : ctaid=(0,75,0) tid=(141,0,0)
GPGPU-Sim uArch: Shader 7 finished CTA #3 (37072,0), 5 CTAs running
GPGPU-Sim uArch: core:  7, cta: 3 initialized @(37073,0)
GPGPU-Sim PTX: 32100000 instructions simulated : ctaid=(0,64,0) tid=(59,0,0)
GPGPU-Sim PTX: 32200000 instructions simulated : ctaid=(0,54,0) tid=(234,0,0)
GPGPU-Sim PTX: 32300000 instructions simulated : ctaid=(0,63,0) tid=(168,0,0)
GPGPU-Sim uArch: cycles simulated: 37500  inst.: 27170062 (ipc=724.5) sim_rate=405523 (inst/sec) elapsed = 0:0:01:07 / Tue Mar 10 19:25:22 2015
GPGPU-Sim PTX: 32400000 instructions simulated : ctaid=(0,78,0) tid=(123,0,0)
GPGPU-Sim PTX: 32500000 instructions simulated : ctaid=(0,106,0) tid=(202,0,0)
GPGPU-Sim uArch: Shader 10 finished CTA #3 (37703,0), 5 CTAs running
GPGPU-Sim uArch: core: 10, cta: 3 initialized @(37704,0)
GPGPU-Sim PTX: 32600000 instructions simulated : ctaid=(0,69,0) tid=(161,0,0)
GPGPU-Sim PTX: 32700000 instructions simulated : ctaid=(0,83,0) tid=(243,0,0)
GPGPU-Sim uArch: Shader 8 finished CTA #3 (37929,0), 5 CTAs running
GPGPU-Sim uArch: core:  8, cta: 3 initialized @(37930,0)
GPGPU-Sim uArch: Shader 0 finished CTA #3 (37946,0), 5 CTAs running
GPGPU-Sim uArch: core:  0, cta: 3 initialized @(37947,0)
GPGPU-Sim PTX: 32800000 instructions simulated : ctaid=(0,79,0) tid=(82,0,0)
GPGPU-Sim uArch: Shader 13 finished CTA #3 (37982,0), 5 CTAs running
GPGPU-Sim uArch: core: 13, cta: 3 initialized @(37983,0)
GPGPU-Sim uArch: Shader 14 finished CTA #3 (37987,0), 5 CTAs running
GPGPU-Sim uArch: core: 14, cta: 3 initialized @(37988,0)
GPGPU-Sim uArch: cycles simulated: 38000  inst.: 27544582 (ipc=724.9) sim_rate=405067 (inst/sec) elapsed = 0:0:01:08 / Tue Mar 10 19:25:23 2015
GPGPU-Sim PTX: 32900000 instructions simulated : ctaid=(0,103,0) tid=(205,0,0)
GPGPU-Sim uArch: Shader 9 finished CTA #3 (38181,0), 5 CTAs running
GPGPU-Sim uArch: core:  9, cta: 3 initialized @(38182,0)
GPGPU-Sim uArch: Shader 11 finished CTA #3 (38186,0), 5 CTAs running
GPGPU-Sim uArch: core: 11, cta: 3 initialized @(38187,0)
GPGPU-Sim PTX: 33000000 instructions simulated : ctaid=(0,86,0) tid=(31,0,0)
GPGPU-Sim PTX: 33100000 instructions simulated : ctaid=(0,83,0) tid=(115,0,0)
GPGPU-Sim uArch: Shader 12 finished CTA #3 (38389,0), 5 CTAs running
GPGPU-Sim uArch: core: 12, cta: 3 initialized @(38390,0)
GPGPU-Sim PTX: 33200000 instructions simulated : ctaid=(0,127,0) tid=(186,0,0)
GPGPU-Sim uArch: cycles simulated: 38500  inst.: 27922720 (ipc=725.3) sim_rate=404677 (inst/sec) elapsed = 0:0:01:09 / Tue Mar 10 19:25:24 2015
GPGPU-Sim PTX: 33300000 instructions simulated : ctaid=(0,98,0) tid=(121,0,0)
GPGPU-Sim PTX: 33400000 instructions simulated : ctaid=(0,148,0) tid=(31,0,0)
GPGPU-Sim PTX: 33500000 instructions simulated : ctaid=(0,76,0) tid=(36,0,0)
GPGPU-Sim PTX: 33600000 instructions simulated : ctaid=(0,74,0) tid=(1,0,0)
GPGPU-Sim PTX: 33700000 instructions simulated : ctaid=(0,79,0) tid=(252,0,0)
GPGPU-Sim uArch: cycles simulated: 39000  inst.: 28302009 (ipc=725.7) sim_rate=404314 (inst/sec) elapsed = 0:0:01:10 / Tue Mar 10 19:25:25 2015
GPGPU-Sim PTX: 33800000 instructions simulated : ctaid=(0,64,0) tid=(167,0,0)
GPGPU-Sim PTX: 33900000 instructions simulated : ctaid=(0,93,0) tid=(45,0,0)
GPGPU-Sim PTX: 34000000 instructions simulated : ctaid=(0,88,0) tid=(161,0,0)
GPGPU-Sim PTX: 34100000 instructions simulated : ctaid=(0,61,0) tid=(33,0,0)
GPGPU-Sim uArch: cycles simulated: 39500  inst.: 28679009 (ipc=726.1) sim_rate=403929 (inst/sec) elapsed = 0:0:01:11 / Tue Mar 10 19:25:26 2015
GPGPU-Sim PTX: 34200000 instructions simulated : ctaid=(0,65,0) tid=(171,0,0)
GPGPU-Sim PTX: 34300000 instructions simulated : ctaid=(0,97,0) tid=(190,0,0)
GPGPU-Sim PTX: 34400000 instructions simulated : ctaid=(0,107,0) tid=(116,0,0)
GPGPU-Sim PTX: 34500000 instructions simulated : ctaid=(0,76,0) tid=(102,0,0)
GPGPU-Sim PTX: 34600000 instructions simulated : ctaid=(0,71,0) tid=(121,0,0)
GPGPU-Sim PTX: 34700000 instructions simulated : ctaid=(0,76,0) tid=(95,0,0)
GPGPU-Sim PTX: 34800000 instructions simulated : ctaid=(0,75,0) tid=(180,0,0)
GPGPU-Sim PTX: 34900000 instructions simulated : ctaid=(0,103,0) tid=(248,0,0)
GPGPU-Sim uArch: Shader 1 finished CTA #4 (40361,0), 5 CTAs running
GPGPU-Sim uArch: core:  1, cta: 4 initialized @(40362,0)
GPGPU-Sim PTX: 35000000 instructions simulated : ctaid=(0,79,0) tid=(2,0,0)
GPGPU-Sim uArch: cycles simulated: 40500  inst.: 29426697 (ipc=726.6) sim_rate=408704 (inst/sec) elapsed = 0:0:01:12 / Tue Mar 10 19:25:27 2015
GPGPU-Sim PTX: 35100000 instructions simulated : ctaid=(0,67,0) tid=(124,0,0)
GPGPU-Sim PTX: 35200000 instructions simulated : ctaid=(0,77,0) tid=(114,0,0)
GPGPU-Sim PTX: 35300000 instructions simulated : ctaid=(0,66,0) tid=(193,0,0)
GPGPU-Sim PTX: 35400000 instructions simulated : ctaid=(0,82,0) tid=(183,0,0)
GPGPU-Sim PTX: 35500000 instructions simulated : ctaid=(0,91,0) tid=(39,0,0)
GPGPU-Sim uArch: cycles simulated: 41000  inst.: 29810647 (ipc=727.1) sim_rate=408365 (inst/sec) elapsed = 0:0:01:13 / Tue Mar 10 19:25:28 2015
GPGPU-Sim uArch: Shader 2 finished CTA #4 (41042,0), 5 CTAs running
GPGPU-Sim uArch: core:  2, cta: 4 initialized @(41043,0)
GPGPU-Sim PTX: 35600000 instructions simulated : ctaid=(0,112,0) tid=(44,0,0)
GPGPU-Sim PTX: 35700000 instructions simulated : ctaid=(0,80,0) tid=(128,0,0)
GPGPU-Sim PTX: 35800000 instructions simulated : ctaid=(0,77,0) tid=(213,0,0)
GPGPU-Sim PTX: 35900000 instructions simulated : ctaid=(0,78,0) tid=(112,0,0)
GPGPU-Sim uArch: cycles simulated: 41500  inst.: 30190002 (ipc=727.5) sim_rate=407973 (inst/sec) elapsed = 0:0:01:14 / Tue Mar 10 19:25:29 2015
GPGPU-Sim PTX: 36000000 instructions simulated : ctaid=(0,65,0) tid=(7,0,0)
GPGPU-Sim PTX: 36100000 instructions simulated : ctaid=(0,79,0) tid=(64,0,0)
GPGPU-Sim uArch: Shader 3 finished CTA #4 (41675,0), 5 CTAs running
GPGPU-Sim uArch: core:  3, cta: 4 initialized @(41676,0)
GPGPU-Sim PTX: 36200000 instructions simulated : ctaid=(0,95,0) tid=(213,0,0)
GPGPU-Sim PTX: 36300000 instructions simulated : ctaid=(0,75,0) tid=(162,0,0)
GPGPU-Sim PTX: 36400000 instructions simulated : ctaid=(0,90,0) tid=(72,0,0)
GPGPU-Sim uArch: cycles simulated: 42000  inst.: 30568451 (ipc=727.8) sim_rate=407579 (inst/sec) elapsed = 0:0:01:15 / Tue Mar 10 19:25:30 2015
GPGPU-Sim PTX: 36500000 instructions simulated : ctaid=(0,68,0) tid=(79,0,0)
GPGPU-Sim uArch: Shader 4 finished CTA #4 (42116,0), 5 CTAs running
GPGPU-Sim uArch: core:  4, cta: 4 initialized @(42117,0)
GPGPU-Sim PTX: 36600000 instructions simulated : ctaid=(0,64,0) tid=(48,0,0)
GPGPU-Sim PTX: 36700000 instructions simulated : ctaid=(0,75,0) tid=(246,0,0)
GPGPU-Sim PTX: 36800000 instructions simulated : ctaid=(0,98,0) tid=(188,0,0)
GPGPU-Sim uArch: cycles simulated: 42500  inst.: 30944309 (ipc=728.1) sim_rate=407161 (inst/sec) elapsed = 0:0:01:16 / Tue Mar 10 19:25:31 2015
GPGPU-Sim PTX: 36900000 instructions simulated : ctaid=(0,89,0) tid=(188,0,0)
GPGPU-Sim PTX: 37000000 instructions simulated : ctaid=(0,103,0) tid=(195,0,0)
GPGPU-Sim PTX: 37100000 instructions simulated : ctaid=(0,105,0) tid=(128,0,0)
GPGPU-Sim PTX: 37200000 instructions simulated : ctaid=(0,92,0) tid=(194,0,0)
GPGPU-Sim PTX: 37300000 instructions simulated : ctaid=(0,113,0) tid=(2,0,0)
GPGPU-Sim uArch: cycles simulated: 43000  inst.: 31325350 (ipc=728.5) sim_rate=406822 (inst/sec) elapsed = 0:0:01:17 / Tue Mar 10 19:25:32 2015
GPGPU-Sim PTX: 37400000 instructions simulated : ctaid=(0,91,0) tid=(177,0,0)
GPGPU-Sim uArch: Shader 5 finished CTA #4 (43140,0), 5 CTAs running
GPGPU-Sim uArch: core:  5, cta: 4 initialized @(43141,0)
GPGPU-Sim PTX: 37500000 instructions simulated : ctaid=(0,100,0) tid=(196,0,0)
GPGPU-Sim PTX: 37600000 instructions simulated : ctaid=(0,68,0) tid=(89,0,0)
GPGPU-Sim PTX: 37700000 instructions simulated : ctaid=(0,67,0) tid=(17,0,0)
GPGPU-Sim PTX: 37800000 instructions simulated : ctaid=(0,78,0) tid=(253,0,0)
GPGPU-Sim PTX: 37900000 instructions simulated : ctaid=(0,71,0) tid=(107,0,0)
GPGPU-Sim PTX: 38000000 instructions simulated : ctaid=(0,78,0) tid=(159,0,0)
GPGPU-Sim PTX: 38100000 instructions simulated : ctaid=(0,85,0) tid=(178,0,0)
GPGPU-Sim PTX: 38200000 instructions simulated : ctaid=(0,93,0) tid=(151,0,0)
GPGPU-Sim uArch: cycles simulated: 44000  inst.: 32081159 (ipc=729.1) sim_rate=411296 (inst/sec) elapsed = 0:0:01:18 / Tue Mar 10 19:25:33 2015
GPGPU-Sim PTX: 38300000 instructions simulated : ctaid=(0,89,0) tid=(246,0,0)
GPGPU-Sim uArch: Shader 6 finished CTA #4 (44093,0), 5 CTAs running
GPGPU-Sim uArch: core:  6, cta: 4 initialized @(44094,0)
GPGPU-Sim PTX: 38400000 instructions simulated : ctaid=(0,71,0) tid=(69,0,0)
GPGPU-Sim uArch: Shader 7 finished CTA #4 (44176,0), 5 CTAs running
GPGPU-Sim uArch: core:  7, cta: 4 initialized @(44177,0)
GPGPU-Sim PTX: 38500000 instructions simulated : ctaid=(0,123,0) tid=(123,0,0)
GPGPU-Sim PTX: 38600000 instructions simulated : ctaid=(0,92,0) tid=(162,0,0)
GPGPU-Sim PTX: 38700000 instructions simulated : ctaid=(0,109,0) tid=(241,0,0)
GPGPU-Sim uArch: cycles simulated: 44500  inst.: 32460183 (ipc=729.4) sim_rate=410888 (inst/sec) elapsed = 0:0:01:19 / Tue Mar 10 19:25:34 2015
GPGPU-Sim PTX: 38800000 instructions simulated : ctaid=(0,70,0) tid=(67,0,0)
GPGPU-Sim uArch: Shader 0 finished CTA #4 (44698,0), 5 CTAs running
GPGPU-Sim uArch: core:  0, cta: 4 initialized @(44699,0)
GPGPU-Sim PTX: 38900000 instructions simulated : ctaid=(0,78,0) tid=(244,0,0)
GPGPU-Sim uArch: Shader 14 finished CTA #4 (44767,0), 5 CTAs running
GPGPU-Sim uArch: core: 14, cta: 4 initialized @(44768,0)
GPGPU-Sim PTX: 39000000 instructions simulated : ctaid=(0,87,0) tid=(203,0,0)
GPGPU-Sim uArch: Shader 13 finished CTA #4 (44853,0), 5 CTAs running
GPGPU-Sim uArch: core: 13, cta: 4 initialized @(44854,0)
GPGPU-Sim uArch: Shader 8 finished CTA #4 (44899,0), 5 CTAs running
GPGPU-Sim uArch: core:  8, cta: 4 initialized @(44900,0)
GPGPU-Sim PTX: 39100000 instructions simulated : ctaid=(0,143,0) tid=(47,0,0)
GPGPU-Sim uArch: Shader 12 finished CTA #4 (44964,0), 5 CTAs running
GPGPU-Sim uArch: core: 12, cta: 4 initialized @(44965,0)
GPGPU-Sim uArch: cycles simulated: 45000  inst.: 32838838 (ipc=729.8) sim_rate=410485 (inst/sec) elapsed = 0:0:01:20 / Tue Mar 10 19:25:35 2015
GPGPU-Sim PTX: 39200000 instructions simulated : ctaid=(0,90,0) tid=(79,0,0)
GPGPU-Sim PTX: 39300000 instructions simulated : ctaid=(0,124,0) tid=(105,0,0)
GPGPU-Sim uArch: Shader 9 finished CTA #4 (45250,0), 5 CTAs running
GPGPU-Sim uArch: core:  9, cta: 4 initialized @(45251,0)
GPGPU-Sim uArch: Shader 10 finished CTA #4 (45257,0), 5 CTAs running
GPGPU-Sim uArch: core: 10, cta: 4 initialized @(45258,0)
GPGPU-Sim PTX: 39400000 instructions simulated : ctaid=(0,118,0) tid=(219,0,0)
GPGPU-Sim uArch: Shader 11 finished CTA #4 (45282,0), 5 CTAs running
GPGPU-Sim uArch: core: 11, cta: 4 initialized @(45283,0)
GPGPU-Sim PTX: 39500000 instructions simulated : ctaid=(0,75,0) tid=(218,0,0)
GPGPU-Sim PTX: 39600000 instructions simulated : ctaid=(0,128,0) tid=(240,0,0)
GPGPU-Sim uArch: cycles simulated: 45500  inst.: 33214873 (ipc=730.0) sim_rate=410060 (inst/sec) elapsed = 0:0:01:21 / Tue Mar 10 19:25:36 2015
GPGPU-Sim PTX: 39700000 instructions simulated : ctaid=(0,118,0) tid=(87,0,0)
GPGPU-Sim PTX: 39800000 instructions simulated : ctaid=(0,105,0) tid=(163,0,0)
GPGPU-Sim PTX: 39900000 instructions simulated : ctaid=(0,85,0) tid=(78,0,0)
GPGPU-Sim PTX: 40000000 instructions simulated : ctaid=(0,78,0) tid=(83,0,0)
GPGPU-Sim uArch: cycles simulated: 46000  inst.: 33578697 (ipc=730.0) sim_rate=409496 (inst/sec) elapsed = 0:0:01:22 / Tue Mar 10 19:25:37 2015
GPGPU-Sim PTX: 40100000 instructions simulated : ctaid=(0,131,0) tid=(163,0,0)
GPGPU-Sim PTX: 40200000 instructions simulated : ctaid=(0,80,0) tid=(171,0,0)
GPGPU-Sim PTX: 40300000 instructions simulated : ctaid=(0,91,0) tid=(90,0,0)
GPGPU-Sim PTX: 40400000 instructions simulated : ctaid=(0,79,0) tid=(170,0,0)
GPGPU-Sim uArch: cycles simulated: 46500  inst.: 33949977 (ipc=730.1) sim_rate=409035 (inst/sec) elapsed = 0:0:01:23 / Tue Mar 10 19:25:38 2015
GPGPU-Sim PTX: 40500000 instructions simulated : ctaid=(0,78,0) tid=(83,0,0)
GPGPU-Sim PTX: 40600000 instructions simulated : ctaid=(0,84,0) tid=(42,0,0)
[...]
gpgpu_stall_shd_mem[l_mem_ld][wb_rsrv_fail] = 0
gpu_reg_bank_conflict_stalls = 0
Warp Occupancy Distribution:
Stall:133151	W0_Idle:32904	W0_Scoreboard:224987	W1:0	W2:0	W3:0	W4:0	W5:0	W6:0	W7:0	W8:0	W9:0	W10:0	W11:0	W12:0	W13:0	W14:0	W15:0	W16:0	W17:0	W18:0	W19:0	W20:0	W21:0	W22:0	W23:0	W24:0	W25:26260	W26:26260	W27:26260	W28:26260	W29:26260	W30:26260	W31:26260	W32:3310868
traffic_breakdown_coretomem[CONST_ACC_R] = 120 {8:15,}
traffic_breakdown_coretomem[GLOBAL_ACC_R] = 129376 {8:16172,}
traffic_breakdown_coretomem[GLOBAL_ACC_W] = 278528 {136:2048,}
traffic_breakdown_coretomem[INST_ACC_R] = 720 {8:90,}
traffic_breakdown_memtocore[CONST_ACC_R] = 1080 {72:15,}
traffic_breakdown_memtocore[GLOBAL_ACC_R] = 2199392 {136:16172,}
traffic_breakdown_memtocore[GLOBAL_ACC_W] = 16384 {8:2048,}
traffic_breakdown_memtocore[INST_ACC_R] = 12240 {136:90,}
maxmrqlatency = 204 
maxdqlatency = 0 
maxmflatency = 623 
averagemflatency = 181 
max_icnt2mem_latency = 103 
max_icnt2sh_latency = 133031 
mrq_lat_table:2929 	1236 	282 	744 	647 	150 	110 	55 	0 	0 	0 	0 	0 	0 	0 	0 	0 	0 	0 	0 	0 	0 	0 	0 	0 	0 	0 	0 	0 	0 	0 	0 	
dq_lat_table:0 	0 	0 	0 	0 	0 	0 	0 	0 	0 	0 	0 	0 	0 	0 	0 	0 	0 	0 	0 	0 	0 	0 	0 	0 	0 	0 	0 	0 	0 	0 	0 	
mf_lat_table:0 	0 	0 	0 	0 	0 	0 	14445 	3658 	132 	0 	0 	0 	0 	0 	0 	0 	0 	0 	0 	0 	0 	0 	0 	0 	0 	0 	0 	0 	0 	0 	0 	
icnt2mem_lat_table:0 	0 	0 	16217 	1586 	513 	9 	0 	0 	0 	0 	0 	0 	0 	0 	0 	0 	0 	0 	0 	0 	0 	0 	0 	
icnt2sh_lat_table:0 	0 	0 	9424 	5435 	1326 	2 	0 	0 	0 	0 	0 	0 	24 	336 	520 	1160 	8 	0 	0 	0 	0 	0 	0 	
mf_lat_pw_table:0 	0 	0 	0 	0 	0 	0 	250 	6 	0 	0 	0 	0 	0 	0 	0 	0 	0 	0 	0 	0 	0 	0 	0 	0 	0 	0 	0 	0 	0 	0 	0 	
maximum concurrent accesses to same row:
dram[0]:         1         0         0         0        10        10        32        32        32        32        32        32         0         0         0         0 
dram[1]:         2         0         0         0        10        10        32        32        32        32        32        32         0         0         0         0 
dram[2]:         4         0         0         0        10        12        32        32        32        32        32        32         0         0         0         0 
dram[3]:         0         0         0         0        10        12        32        32        32        32        32        32         0         0         0         0 
dram[4]:         0         0         0         0        10        12        32        32        32        32        32        32         0         0         0         0 
dram[5]:         0         0         0         0        10        12        32        32        32        32        32        32         0         0         0         0 
maximum service time to same row:
dram[0]:      1851     15106     35560     36372     56240     57676     79556     79322    101203    101096     98228    100858     45574     45622     67718     67754 
dram[1]:     12817     15125     35807     36391     57291     57677     79588     79344    101697    101111    101427    100106     45577     45654     67760     67815 
dram[2]:     11309     15132     35818     36397     57283     57720     79588     79350    101702    101169    100988    100660     45591     45729     67832     70900 
dram[3]:     14407     16896     35824     36800     57308     57799     79603     79805    101711    101206    100685    100594     45672     45735     67988     70965 
dram[4]:     14421     16907     35835     36807     57263     57801     79611     79805    101694    101210    101932    100434     45560     45772     67706     71090 
dram[5]:     15112     16913     36365     36832     57666     57803     79319     79819    101096    101203    100877    100291     45584     45777     67726     71357 
average row accesses per activate:
dram[0]: 16.250000 64.000000 64.000000 64.000000 37.000000 37.000000 48.000000 48.000000 48.000000 48.000000 28.000000 26.000000 32.000000 32.000000 32.000000 32.000000 
dram[1]: 33.000000 64.000000 64.000000 64.000000 37.000000 37.000000 48.000000 48.000000 48.000000 48.000000 28.000000 26.000000 32.000000 32.000000 32.000000 32.000000 
dram[2]: 16.500000 64.000000 64.000000 64.000000 37.000000 38.000000 48.000000 48.000000 48.000000 48.000000 28.000000 26.000000 32.000000 32.000000 32.000000 32.000000 
dram[3]: 64.000000 64.000000 64.000000 64.000000 37.000000 38.000000 48.000000 48.000000 48.000000 48.000000 28.000000 26.000000 32.000000 32.000000 32.000000 32.000000 
dram[4]: 64.000000 64.000000 64.000000 64.000000 37.000000 38.000000 48.000000 48.000000 48.000000 48.000000 28.000000 26.000000 32.000000 32.000000 32.000000 32.000000 
dram[5]: 64.000000 64.000000 64.000000 64.000000 37.000000 38.000000 48.000000 48.000000 48.000000 48.000000 26.000000 26.000000 32.000000 32.000000 32.000000 32.000000 
average row locality = 6153/151 = 40.748344
number of total memory accesses made:
dram[0]:         0         0         0         0         0         0         0         0         0         0         0         0         0         0         0         0 
dram[1]:         0         0         0         0         0         0         0         0         0         0         0         0         0         0         0         0 
dram[2]:         0         0         0         0         0         0         0         0         0         0         0         0         0         0         0         0 
dram[3]:         0         0         0         0         0         0         0         0         0         0         0         0         0         0         0         0 
dram[4]:         0         0         0         0         0         0         0         0         0         0         0         0         0         0         0         0 
dram[5]:         0         0         0         0         0         0         0         0         0         0         0         0         0         0         0         0 
total accesses: 0
min_bank_accesses = 0!
min_chip_accesses = 0!
number of total read accesses:
dram[0]:        35        32        32        32        42        42        64        64        64        64        44        42        32        32        32        32 
dram[1]:        34        32        32        32        42        42        64        64        64        64        44        42        32        32        32        32 
dram[2]:        34        32        32        32        42        44        64        64        64        64        44        42        32        32        32        32 
dram[3]:        32        32        32        32        42        44        64        64        64        64        44        42        32        32        32        32 
dram[4]:        32        32        32        32        42        44        64        64        64        64        44        42        32        32        32        32 
dram[5]:        32        32        32        32        42        44        64        64        64        64        42        42        32        32        32        32 
total reads: 4105
bank skew: 64/32 = 2.00
chip skew: 686/682 = 1.01
number of total write accesses:
dram[0]:        30        32        32        32        32        32        32        32        32        32        12        10         0         0         0         0 
dram[1]:        32        32        32        32        32        32        32        32        32        32        12        10         0         0         0         0 
dram[2]:        32        32        32        32        32        32        32        32        32        32        12        10         0         0         0         0 
dram[3]:        32        32        32        32        32        32        32        32        32        32        12        10         0         0         0         0 
dram[4]:        32        32        32        32        32        32        32        32        32        32        12        10         0         0         0         0 
dram[5]:        32        32        32        32        32        32        32        32        32        32        10        10         0         0         0         0 
total reads: 2048
min_bank_accesses = 0!
chip skew: 342/340 = 1.01
average mf latency per bank:
dram[0]:        271       136       137       133       310       305       590       575       546       536       791       853      1294      1310      1235      1241
dram[1]:        127       140       130       135       309       309       594       591       549       545       800       850      1303      1312      1247      1229
dram[2]:        130       142       132       137       307       338       596       597       541       541       807       836      1306      1294      1258      1185
dram[3]:        137       132       135       131       305       334       561       595       532       534       807       841      1304      1305      1247      1202
dram[4]:        139       133       136       133       310       331       598       581       537       535       786       851      1289      1311      1214      1203
dram[5]:        135       138       131       136       308       335       591       574       538       537       848       851      1299      1311      1228      1203
maximum mf latency per bank:
dram[0]:        328       382       295       302       422       394       584       531       546       399       296       296       269       285       287       290
dram[1]:        305       377       287       295       456       404       598       589       580       406       293       303       271       272       281       288
dram[2]:        302       380       321       305       406       445       559       595       572       459       298       288       281       279       276       278
dram[3]:        310       305       295       279       392       432       464       587       426       435       320       288       283       280       284       298
dram[4]:        313       310       300       293       488       377       623       537       601       371       296       297       279       289       280       278
dram[5]:        374       329       296       298       458       420       613       535       466       427       287       303       271       294       284       288

Number of Memory Banks Accessed per Memory Operation per Warp (from 0):
0	0	0	0	0	0	0	0	0	0	0	0	0	0	0	0	0	0	0	0	0	0	0	0	0	0	0	0	0	0	0	0	0	0	0	0	0	0	0	0	0	0	0	0	0	0	0	0	0	0	0	0	0	0	0	0	0	0	0	0	0	0	0	0	0	0	0	0	0	0	0	0	0	0	0	0	0	0	0	0	0	0	0	0	0	0	0	0	0	0	0	0	0	0	0	0	
Average # of Memory Banks Accessed per Memory Operation per Warp=-nan

position of mrq chosen
0	0	0	0	0	0	0	0	0	0	0	0	0	0	0	0	

average position of mrq chosen = -nan
Memory Partition 0: 
Cache L2_bank_000:
MSHR contents

Cache L2_bank_001:
MSHR contents

In Dram Latency Queue (total = 0): 
DRAM[0]: 16 bks, busW=4 BL=8 CL=12, tRRD=2 tCCD=6, tRCD=12 tRAS=28 tRP=12 tRC=40
n_cmd=175601 n_nop=173513 n_act=27 n_pre=11 n_req=1025 n_rd=1370 n_write=680 bw_util=0.02335
n_activity=13865 dram_eff=0.2957
bk0: 70a 174707i bk1: 64a 174796i bk2: 64a 174822i bk3: 64a 174855i bk4: 84a 174756i bk5: 84a 174758i bk6: 128a 174459i bk7: 128a 174383i bk8: 128a 174582i bk9: 128a 174530i bk10: 88a 175199i bk11: 84a 175160i bk12: 64a 175448i bk13: 64a 175455i bk14: 64a 175460i bk15: 64a 175453i 
dram_util_bins: 0 0 0 0 0 0 0 0 0 0
dram_eff_bins: 0 0 0 0 0 0 0 0 0 0
mrqq: max=16 avg=0.0652616
Memory Partition 1: 
Cache L2_bank_002:
MSHR contents

Cache L2_bank_003:
MSHR contents

In Dram Latency Queue (total = 0): 
DRAM[1]: 16 bks, busW=4 BL=8 CL=12, tRRD=2 tCCD=6, tRCD=12 tRAS=28 tRP=12 tRC=40
n_cmd=175601 n_nop=173515 n_act=25 n_pre=9 n_req=1026 n_rd=1368 n_write=684 bw_util=0.02337
n_activity=13880 dram_eff=0.2957
bk0: 68a 174799i bk1: 64a 174788i bk2: 64a 174832i bk3: 64a 174841i bk4: 84a 174704i bk5: 84a 174695i bk6: 128a 174493i bk7: 128a 174403i bk8: 128a 174656i bk9: 128a 174578i bk10: 88a 175146i bk11: 84a 175238i bk12: 64a 175431i bk13: 64a 175437i bk14: 64a 175441i bk15: 64a 175446i 
dram_util_bins: 0 0 0 0 0 0 0 0 0 0
dram_eff_bins: 0 0 0 0 0 0 0 0 0 0
mrqq: max=16 avg=0.0628983
Memory Partition 2: 
Cache L2_bank_004:
MSHR contents

Cache L2_bank_005:
MSHR contents

In Dram Latency Queue (total = 0): 
DRAM[2]: 16 bks, busW=4 BL=8 CL=12, tRRD=2 tCCD=6, tRCD=12 tRAS=28 tRP=12 tRC=40
n_cmd=175601 n_nop=173507 n_act=27 n_pre=11 n_req=1028 n_rd=1372 n_write=684 bw_util=0.02342
n_activity=13922 dram_eff=0.2954
bk0: 68a 174784i bk1: 64a 174785i bk2: 64a 174895i bk3: 64a 174853i bk4: 84a 174775i bk5: 88a 174656i bk6: 128a 174485i bk7: 128a 174380i bk8: 128a 174666i bk9: 128a 174516i bk10: 88a 175158i bk11: 84a 175235i bk12: 64a 175451i bk13: 64a 175433i bk14: 64a 175461i bk15: 64a 175462i 
dram_util_bins: 0 0 0 0 0 0 0 0 0 0
dram_eff_bins: 0 0 0 0 0 0 0 0 0 0
mrqq: max=16 avg=0.0632798
Memory Partition 3: 
Cache L2_bank_006:
MSHR contents
MSHR: tag=0x8007ff80, atomic=0 1 entries : 0xad146f68 :  mf: uid=2145663, sid01:w45, part=3, addr=0x8007ff80, load , size=128, unknown  status = IN_PARTITION_DRAM (133029), 

Cache L2_bank_007:
MSHR contents

In Dram Latency Queue (total = 0): 
DRAM[3]: 16 bks, busW=4 BL=8 CL=12, tRRD=2 tCCD=6, tRCD=12 tRAS=28 tRP=12 tRC=40
n_cmd=175601 n_nop=173517 n_act=24 n_pre=8 n_req=1026 n_rd=1368 n_write=684 bw_util=0.02337
n_activity=13947 dram_eff=0.2943
bk0: 64a 174831i bk1: 64a 174771i bk2: 64a 174826i bk3: 64a 174813i bk4: 84a 174769i bk5: 88a 174663i bk6: 128a 174463i bk7: 128a 174292i bk8: 128a 174682i bk9: 128a 174585i bk10: 88a 175140i bk11: 84a 175215i bk12: 64a 175455i bk13: 64a 175445i bk14: 64a 175459i bk15: 64a 175459i 
dram_util_bins: 0 0 0 0 0 0 0 0 0 0
dram_eff_bins: 0 0 0 0 0 0 0 0 0 0
mrqq: max=16 avg=0.0615714
Memory Partition 4: 
Cache L2_bank_008:
MSHR contents

Cache L2_bank_009:
MSHR contents

In Dram Latency Queue (total = 0): 
DRAM[4]: 16 bks, busW=4 BL=8 CL=12, tRRD=2 tCCD=6, tRCD=12 tRAS=28 tRP=12 tRC=40
n_cmd=175601 n_nop=173517 n_act=24 n_pre=8 n_req=1026 n_rd=1368 n_write=684 bw_util=0.02337
n_activity=13903 dram_eff=0.2952
bk0: 64a 174818i bk1: 64a 174881i bk2: 64a 174821i bk3: 64a 174868i bk4: 84a 174741i bk5: 88a 174660i bk6: 128a 174425i bk7: 128a 174376i bk8: 128a 174678i bk9: 128a 174618i bk10: 88a 175184i bk11: 84a 175208i bk12: 64a 175416i bk13: 64a 175443i bk14: 64a 175457i bk15: 64a 175452i 
dram_util_bins: 0 0 0 0 0 0 0 0 0 0
dram_eff_bins: 0 0 0 0 0 0 0 0 0 0
mrqq: max=16 avg=0.0577844
Memory Partition 5: 
Cache L2_bank_010:
MSHR contents

Cache L2_bank_011:
MSHR contents

In Dram Latency Queue (total = 0): 
DRAM[5]: 16 bks, busW=4 BL=8 CL=12, tRRD=2 tCCD=6, tRCD=12 tRAS=28 tRP=12 tRC=40
n_cmd=175601 n_nop=173525 n_act=24 n_pre=8 n_req=1022 n_rd=1364 n_write=680 bw_util=0.02328
n_activity=13622 dram_eff=0.3001
bk0: 64a 174812i bk1: 64a 174775i bk2: 64a 174803i bk3: 64a 174851i bk4: 84a 174706i bk5: 88a 174598i bk6: 128a 174444i bk7: 128a 174303i bk8: 128a 174579i bk9: 128a 174551i bk10: 84a 175164i bk11: 84a 175195i bk12: 64a 175459i bk13: 64a 175449i bk14: 64a 175442i bk15: 64a 175461i 
dram_util_bins: 0 0 0 0 0 0 0 0 0 0
dram_eff_bins: 0 0 0 0 0 0 0 0 0 0
mrqq: max=16 avg=0.0670782

========= L2 cache stats =========
L2_cache_bank[0]: Access = 1591, Miss = 345, Miss_rate = 0.217, Pending_hits = 12, Reservation_fails = 483
L2_cache_bank[1]: Access = 1509, Miss = 340, Miss_rate = 0.225, Pending_hits = 0, Reservation_fails = 74
L2_cache_bank[2]: Access = 1548, Miss = 344, Miss_rate = 0.222, Pending_hits = 6, Reservation_fails = 241
L2_cache_bank[3]: Access = 1510, Miss = 340, Miss_rate = 0.225, Pending_hits = 0, Reservation_fails = 69
L2_cache_bank[4]: Access = 1548, Miss = 344, Miss_rate = 0.222, Pending_hits = 3, Reservation_fails = 145
L2_cache_bank[5]: Access = 1520, Miss = 342, Miss_rate = 0.225, Pending_hits = 0, Reservation_fails = 75
L2_cache_bank[6]: Access = 1518, Miss = 342, Miss_rate = 0.225, Pending_hits = 0, Reservation_fails = 25
L2_cache_bank[7]: Access = 1520, Miss = 342, Miss_rate = 0.225, Pending_hits = 0, Reservation_fails = 61
L2_cache_bank[8]: Access = 1511, Miss = 342, Miss_rate = 0.226, Pending_hits = 0, Reservation_fails = 81
L2_cache_bank[9]: Access = 1520, Miss = 342, Miss_rate = 0.225, Pending_hits = 0, Reservation_fails = 39
L2_cache_bank[10]: Access = 1510, Miss = 340, Miss_rate = 0.225, Pending_hits = 0, Reservation_fails = 88
L2_cache_bank[11]: Access = 1520, Miss = 342, Miss_rate = 0.225, Pending_hits = 0, Reservation_fails = 43
L2_total_cache_accesses = 18325
L2_total_cache_misses = 4105
L2_total_cache_miss_rate = 0.2240
L2_total_cache_pending_hits = 21
L2_total_cache_reservation_fails = 1424
L2_total_cache_breakdown:
	L2_cache_stats_breakdown[GLOBAL_ACC_R][HIT] = 14119
	L2_cache_stats_breakdown[GLOBAL_ACC_R][HIT_RESERVED] = 3
	L2_cache_stats_breakdown[GLOBAL_ACC_R][MISS] = 2050
	L2_cache_stats_breakdown[GLOBAL_ACC_R][RESERVATION_FAIL] = 785
	L2_cache_stats_breakdown[CONST_ACC_R][HIT] = 11
	L2_cache_stats_breakdown[CONST_ACC_R][HIT_RESERVED] = 3
	L2_cache_stats_breakdown[CONST_ACC_R][MISS] = 1
	L2_cache_stats_breakdown[CONST_ACC_R][RESERVATION_FAIL] = 112
	L2_cache_stats_breakdown[GLOBAL_ACC_W][MISS] = 2048
	L2_cache_stats_breakdown[INST_ACC_R][HIT] = 69
	L2_cache_stats_breakdown[INST_ACC_R][HIT_RESERVED] = 15
	L2_cache_stats_breakdown[INST_ACC_R][MISS] = 6
	L2_cache_stats_breakdown[INST_ACC_R][RESERVATION_FAIL] = 527
L2_cache_data_port_util = 0.036
L2_cache_fill_port_util = 0.010

icnt_total_pkts_mem_to_simt=83403
icnt_total_pkts_simt_to_mem=26517
LD_mem_lat_dist  0 0 0 0 0 0 0 0 0 0 0 0 0 0 0 0 0 0 0 0 0 0 0 0 0 0 0
ST_mem_lat_dist  0 0 0 0 0 0 0 0 0 0 0 0 0 0 0 0 0 0 0 0 0 0 0 0 0 0 0
----------------------------Interconnect-DETAILS--------------------------------
Class 0:
Packet latency average = 11.2286
	minimum = 6
	maximum = 64
Network latency average = 10.6437
	minimum = 6
	maximum = 57
Slowest packet = 14
Flit latency average = 9.77757
	minimum = 6
	maximum = 53
Slowest flit = 97628
Fragmentation average = 0
	minimum = 0
	maximum = 0
Injected packet rate average = 0.0102036
	minimum = 0.00890763 (at node 2)
	maximum = 0.0119595 (at node 15)
Accepted packet rate average = 0.0102036
	minimum = 0.00890763 (at node 2)
	maximum = 0.0119595 (at node 15)
Injected flit rate average = 0.0306025
	minimum = 0.0129969 (at node 2)
	maximum = 0.0544606 (at node 15)
Accepted flit rate average= 0.0306025
	minimum = 0.0164547 (at node 16)
	maximum = 0.042238 (at node 0)
Injected packet length average = 2.99918
Accepted packet length average = 2.99918
Total in-flight flits = 0 (0 measured)
====== Overall Traffic Statistics ======
====== Traffic class 0 ======
Packet latency average = 11.2286 (1 samples)
	minimum = 6 (1 samples)
	maximum = 64 (1 samples)
Network latency average = 10.6437 (1 samples)
	minimum = 6 (1 samples)
	maximum = 57 (1 samples)
Flit latency average = 9.77757 (1 samples)
	minimum = 6 (1 samples)
	maximum = 53 (1 samples)
Fragmentation average = 0 (1 samples)
	minimum = 0 (1 samples)
	maximum = 0 (1 samples)
Injected packet rate average = 0.0102036 (1 samples)
	minimum = 0.00890763 (1 samples)
	maximum = 0.0119595 (1 samples)
Accepted packet rate average = 0.0102036 (1 samples)
	minimum = 0.00890763 (1 samples)
	maximum = 0.0119595 (1 samples)
Injected flit rate average = 0.0306025 (1 samples)
	minimum = 0.0129969 (1 samples)
	maximum = 0.0544606 (1 samples)
Accepted flit rate average = 0.0306025 (1 samples)
	minimum = 0.0164547 (1 samples)
	maximum = 0.042238 (1 samples)
Injected packet size average = 2.99918 (1 samples)
Accepted packet size average = 2.99918 (1 samples)
Hops average = 1 (1 samples)
----------------------------END-of-Interconnect-DETAILS-------------------------


gpgpu_simulation_time = 0 days, 0 hrs, 3 min, 53 sec (233 sec)
gpgpu_simulation_rate = 398983 (inst/sec)
gpgpu_simulation_rate = 570 (cycle/sec)
Processing time: 232108.015625 (ms) -- do done kernel  
hello
Test PASSED

Press ENTER to exit...
