

        *** GPGPU-Sim Simulator Version 3.2.2  [build 0] ***


GPGPU-Sim PTX: simulation mode 0 (can change with PTX_SIM_MODE_FUNC environment variable:
               1=functional simulation only, 0=detailed performance simulator)
GPGPU-Sim: Configuration options:

-network_mode                           1 # Interconnection network mode
-inter_config_file   config_fermi_islip.icnt # Interconnection network config file
-gpgpu_ptx_use_cuobjdump                    1 # Use cuobjdump to extract ptx and sass from binaries
-gpgpu_experimental_lib_support                    0 # Try to extract code from cuda libraries [Broken because of unknown cudaGetExportTable]
-gpgpu_ptx_convert_to_ptxplus                    0 # Convert SASS (native ISA) to ptxplus and run ptxplus
-gpgpu_ptx_force_max_capability                   20 # Force maximum compute capability
-gpgpu_ptx_inst_debug_to_file                    0 # Dump executed instructions' debug information to file
-gpgpu_ptx_inst_debug_file       inst_debug.txt # Executed instructions' debug output file
-gpgpu_ptx_inst_debug_thread_uid                    1 # Thread UID for executed instructions' debug output
-gpgpu_simd_model                       1 # 1 = post-dominator
-gpgpu_shader_core_pipeline              1536:32 # shader core pipeline config, i.e., {<nthread>:<warpsize>}
-gpgpu_tex_cache:l1  4:128:24,L:R:m:N:L,F:128:4,128:2 # per-shader L1 texture cache  (READ-ONLY) config  {<nsets>:<bsize>:<assoc>,<rep>:<wr>:<alloc>:<wr_alloc>,<mshr>:<N>:<merge>,<mq>:<rf>}
-gpgpu_const_cache:l1 64:64:2,L:R:f:N:L,A:2:32,4 # per-shader L1 constant memory cache  (READ-ONLY) config  {<nsets>:<bsize>:<assoc>,<rep>:<wr>:<alloc>:<wr_alloc>,<mshr>:<N>:<merge>,<mq>} 
-gpgpu_cache:il1     4:128:4,L:R:f:N:L,A:2:32,4 # shader L1 instruction cache config  {<nsets>:<bsize>:<assoc>,<rep>:<wr>:<alloc>:<wr_alloc>,<mshr>:<N>:<merge>,<mq>} 
-gpgpu_cache:dl1     32:128:4,L:L:m:N:H,A:32:8,8 # per-shader L1 data cache config  {<nsets>:<bsize>:<assoc>,<rep>:<wr>:<alloc>:<wr_alloc>,<mshr>:<N>:<merge>,<mq> | none}
-gpgpu_cache:dl1PrefL1                 none # per-shader L1 data cache config  {<nsets>:<bsize>:<assoc>,<rep>:<wr>:<alloc>:<wr_alloc>,<mshr>:<N>:<merge>,<mq> | none}
-gpgpu_cache:dl1PreShared                 none # per-shader L1 data cache config  {<nsets>:<bsize>:<assoc>,<rep>:<wr>:<alloc>:<wr_alloc>,<mshr>:<N>:<merge>,<mq> | none}
-gmem_skip_L1D                          0 # global memory access skip L1D cache (implements -Xptxas -dlcm=cg, default=no skip)
-gpgpu_perfect_mem                      0 # enable perfect memory mode (no cache miss)
-n_regfile_gating_group                    4 # group of lanes that should be read/written together)
-gpgpu_clock_gated_reg_file                    0 # enable clock gated reg file for power calculations
-gpgpu_clock_gated_lanes                    0 # enable clock gated lanes for power calculations
-gpgpu_shader_registers                32768 # Number of registers per shader core. Limits number of concurrent CTAs. (default 8192)
-gpgpu_shader_cta                       8 # Maximum number of concurrent CTAs in shader (default 8)
-gpgpu_num_cta_barriers                   16 # Maximum number of named barriers per CTA (default 16)
-gpgpu_n_clusters                      15 # number of processing clusters
-gpgpu_n_cores_per_cluster                    1 # number of simd cores per cluster
-gpgpu_n_cluster_ejection_buffer_size                    8 # number of packets in ejection buffer
-gpgpu_n_ldst_response_buffer_size                    2 # number of response packets in ld/st unit ejection buffer
-gpgpu_shmem_size                   16384 # Size of shared memory per shader core (default 16kB)
-gpgpu_shmem_size                   49152 # Size of shared memory per shader core (default 16kB)
-gpgpu_shmem_size_PrefL1                16384 # Size of shared memory per shader core (default 16kB)
-gpgpu_shmem_size_PrefShared                16384 # Size of shared memory per shader core (default 16kB)
-gpgpu_shmem_num_banks                   32 # Number of banks in the shared memory in each shader core (default 16)
-gpgpu_shmem_limited_broadcast                    0 # Limit shared memory to do one broadcast per cycle (default on)
-gpgpu_shmem_warp_parts                    1 # Number of portions a warp is divided into for shared memory bank conflict check 
-gpgpu_warpdistro_shader                   -1 # Specify which shader core to collect the warp size distribution from
-gpgpu_warp_issue_shader                    0 # Specify which shader core to collect the warp issue distribution from
-gpgpu_local_mem_map                    1 # Mapping from local memory space address to simulated GPU physical address space (default = enabled)
-gpgpu_num_reg_banks                   16 # Number of register banks (default = 8)
-gpgpu_reg_bank_use_warp_id                    0 # Use warp ID in mapping registers to banks (default = off)
-gpgpu_operand_collector_num_units_sp                    6 # number of collector units (default = 4)
-gpgpu_operand_collector_num_units_sfu                    8 # number of collector units (default = 4)
-gpgpu_operand_collector_num_units_mem                    2 # number of collector units (default = 2)
-gpgpu_operand_collector_num_units_gen                    0 # number of collector units (default = 0)
-gpgpu_operand_collector_num_in_ports_sp                    2 # number of collector unit in ports (default = 1)
-gpgpu_operand_collector_num_in_ports_sfu                    1 # number of collector unit in ports (default = 1)
-gpgpu_operand_collector_num_in_ports_mem                    1 # number of collector unit in ports (default = 1)
-gpgpu_operand_collector_num_in_ports_gen                    0 # number of collector unit in ports (default = 0)
-gpgpu_operand_collector_num_out_ports_sp                    2 # number of collector unit in ports (default = 1)
-gpgpu_operand_collector_num_out_ports_sfu                    1 # number of collector unit in ports (default = 1)
-gpgpu_operand_collector_num_out_ports_mem                    1 # number of collector unit in ports (default = 1)
-gpgpu_operand_collector_num_out_ports_gen                    0 # number of collector unit in ports (default = 0)
-gpgpu_coalesce_arch                   13 # Coalescing arch (default = 13, anything else is off for now)
-gpgpu_num_sched_per_core                    2 # Number of warp schedulers per core
-gpgpu_max_insn_issue_per_warp                    1 # Max number of instructions that can be issued per warp in one cycle by scheduler
-gpgpu_simt_core_sim_order                    1 # Select the simulation order of cores in a cluster (0=Fix, 1=Round-Robin)
-gpgpu_pipeline_widths        2,1,1,2,1,1,2 # Pipeline widths ID_OC_SP,ID_OC_SFU,ID_OC_MEM,OC_EX_SP,OC_EX_SFU,OC_EX_MEM,EX_WB
-gpgpu_num_sp_units                     2 # Number of SP units (default=1)
-gpgpu_num_sfu_units                    1 # Number of SF units (default=1)
-gpgpu_num_mem_units                    1 # Number if ldst units (default=1) WARNING: not hooked up to anything
-gpgpu_scheduler                      gto # Scheduler configuration: < lrr | gto | two_level_active > If two_level_active:<num_active_warps>:<inner_prioritization>:<outer_prioritization>For complete list of prioritization values see shader.h enum scheduler_prioritization_typeDefault: gto
-gpgpu_dram_scheduler                    1 # 0 = fifo, 1 = FR-FCFS (defaul)
-gpgpu_dram_partition_queues              8:8:8:8 # i2$:$2d:d2$:$2i
-l2_ideal                               0 # Use a ideal L2 cache that always hit
-gpgpu_cache:dl2     64:128:8,L:B:m:W:L,A:32:4,4:0,32 # unified banked L2 data cache config  {<nsets>:<bsize>:<assoc>,<rep>:<wr>:<alloc>:<wr_alloc>,<mshr>:<N>:<merge>,<mq>}
-gpgpu_cache:dl2_texture_only                    0 # L2 cache used for texture only
-gpgpu_n_mem                            6 # number of memory modules (e.g. memory controllers) in gpu
-gpgpu_n_sub_partition_per_mchannel                    2 # number of memory subpartition in each memory module
-gpgpu_n_mem_per_ctrlr                    2 # number of memory chips per memory controller
-gpgpu_memlatency_stat                   14 # track and display latency statistics 0x2 enables MC, 0x4 enables queue logs
-gpgpu_frfcfs_dram_sched_queue_size                   16 # 0 = unlimited (default); # entries per chip
-gpgpu_dram_return_queue_size                  116 # 0 = unlimited (default); # entries per chip
-gpgpu_dram_buswidth                    4 # default = 4 bytes (8 bytes per cycle at DDR)
-gpgpu_dram_burst_length                    8 # Burst length of each DRAM request (default = 4 data bus cycle)
-dram_data_command_freq_ratio                    4 # Frequency ratio between DRAM data bus and command bus (default = 2 times, i.e. DDR)
-gpgpu_dram_timing_opt nbk=16:CCD=2:RRD=6:RCD=12:RAS=28:RP=12:RC=40: CL=12:WL=4:CDLR=5:WR=12:nbkgrp=4:CCDL=3:RTPL=2 # DRAM timing parameters = {nbk:tCCD:tRRD:tRCD:tRAS:tRP:tRC:CL:WL:tCDLR:tWR:nbkgrp:tCCDL:tRTPL}
-rop_latency                          120 # ROP queue latency (default 85)
-dram_latency                         100 # DRAM latency (default 30)
-gpgpu_mem_addr_mapping dramid@8;00000000.00000000.00000000.00000000.0000RRRR.RRRRRRRR.BBBCCCCB.CCSSSSSS # mapping memory address to dram model {dramid@<start bit>;<memory address map>}
-gpgpu_mem_addr_test                    0 # run sweep test to check address mapping for aliased address
-gpgpu_mem_address_mask                    1 # 0 = old addressing mask, 1 = new addressing mask, 2 = new add. mask + flipped bank sel and chip sel bits
-gpuwattch_xml_file  gpuwattch_gtx480.xml # GPUWattch XML file
-power_simulation_enabled                    1 # Turn on power simulator (1=On, 0=Off)
-power_per_cycle_dump                    0 # Dump detailed power output each cycle
-power_trace_enabled                    0 # produce a file for the power trace (1=On, 0=Off)
-power_trace_zlevel                     6 # Compression level of the power trace output log (0=no comp, 9=highest)
-steady_power_levels_enabled                    0 # produce a file for the steady power levels (1=On, 0=Off)
-steady_state_definition                  8:4 # allowed deviation:number of samples
-gpgpu_max_cycle                        0 # terminates gpu simulation early (0 = no limit)
-gpgpu_max_insn                         0 # terminates gpu simulation early (0 = no limit)
-gpgpu_max_cta                          0 # terminates gpu simulation early (0 = no limit)
-gpgpu_runtime_stat                   500 # display runtime statistics such as dram utilization {<freq>:<flag>}
-liveness_message_freq                    1 # Minimum number of seconds between simulation liveness messages (0 = always print)
-gpgpu_flush_l1_cache                    0 # Flush L1 cache at the end of each kernel call
-gpgpu_flush_l2_cache                    0 # Flush L2 cache at the end of each kernel call
-gpgpu_deadlock_detect                    1 # Stop the simulation at deadlock (1=on (default), 0=off)
-gpgpu_ptx_instruction_classification                    0 # if enabled will classify ptx instruction types per kernel (Max 255 kernels now)
-gpgpu_ptx_sim_mode                     0 # Select between Performance (default) or Functional simulation (1)
-gpgpu_clock_domains 700.0:700.0:700.0:924.0 # Clock Domain Frequencies in MhZ {<Core Clock>:<ICNT Clock>:<L2 Clock>:<DRAM Clock>}
-gpgpu_max_concurrent_kernel                    8 # maximum kernels that can run concurrently on GPU
-gpgpu_cflog_interval                    0 # Interval between each snapshot in control flow logger
-visualizer_enabled                     0 # Turn on visualizer output (1=On, 0=Off)
-visualizer_outputfile                 NULL # Specifies the output log file for visualizer
-visualizer_zlevel                      6 # Compression level of the visualizer output log (0=no comp, 9=highest)
-trace_enabled                          0 # Turn on traces
-trace_components                    none # comma seperated list of traces to enable. Complete list found in trace_streams.tup. Default none
-trace_sampling_core                    0 # The core which is printed using CORE_DPRINTF. Default 0
-trace_sampling_memory_partition                   -1 # The memory partition which is printed using MEMPART_DPRINTF. Default -1 (i.e. all)
-enable_ptx_file_line_stats                    1 # Turn on PTX source line statistic profiling. (1 = On)
-ptx_line_stats_filename gpgpu_inst_stats.txt # Output file for PTX source line statistics.
-save_embedded_ptx                      0 # saves ptx files embedded in binary as <n>.ptx
-keep                                   0 # keep intermediate files created by GPGPU-Sim when interfacing with external programs
-gpgpu_ptx_save_converted_ptxplus                    0 # Saved converted ptxplus to a file
-ptx_opcode_latency_int         4,13,4,5,145 # Opcode latencies for integers <ADD,MAX,MUL,MAD,DIV>Default 1,1,19,25,145
-ptx_opcode_latency_fp          4,13,4,5,39 # Opcode latencies for single precision floating points <ADD,MAX,MUL,MAD,DIV>Default 1,1,1,1,30
-ptx_opcode_latency_dp         8,19,8,8,330 # Opcode latencies for double precision floating points <ADD,MAX,MUL,MAD,DIV>Default 8,8,8,8,335
-ptx_opcode_initiation_int            1,2,2,1,8 # Opcode initiation intervals for integers <ADD,MAX,MUL,MAD,DIV>Default 1,1,4,4,32
-ptx_opcode_initiation_fp            1,2,1,1,4 # Opcode initiation intervals for single precision floating points <ADD,MAX,MUL,MAD,DIV>Default 1,1,1,1,5
-ptx_opcode_initiation_dp         8,16,8,8,130 # Opcode initiation intervals for double precision floating points <ADD,MAX,MUL,MAD,DIV>Default 8,8,8,8,130
DRAM Timing Options:
nbk                                    16 # number of banks
CCD                                     2 # column to column delay
RRD                                     6 # minimal delay between activation of rows in different banks
RCD                                    12 # row to column delay
RAS                                    28 # time needed to activate row
RP                                     12 # time needed to precharge (deactivate) row
RC                                     40 # row cycle time
CDLR                                    5 # switching from write to read (changes tWTR)
WR                                     12 # last data-in to row precharge
CL                                     12 # CAS latency
WL                                      4 # Write latency
nbkgrp                                  4 # number of bank groups
CCDL                                    3 # column to column delay between accesses to different bank groups
RTPL                                    2 # read to precharge delay between accesses to different bank groups
Total number of memory sub partition = 12
addr_dec_mask[CHIP]  = 0000000000000000 	high:64 low:0
addr_dec_mask[BK]    = 000000000000e100 	high:16 low:8
addr_dec_mask[ROW]   = 000000000fff0000 	high:28 low:16
addr_dec_mask[COL]   = 0000000000001eff 	high:13 low:0
addr_dec_mask[BURST] = 000000000000003f 	high:6 low:0
sub_partition_id_mask = 0000000000000100
GPGPU-Sim uArch: clock freqs: 700000000.000000:700000000.000000:700000000.000000:924000000.000000
GPGPU-Sim uArch: clock periods: 0.00000000142857142857:0.00000000142857142857:0.00000000142857142857:0.00000000108225108225
*** Initializing Memory Statistics ***
GPGPU-Sim uArch: interconnect node map (shaderID+MemID to icntID)
GPGPU-Sim uArch: Memory nodes ID start from index: 15
GPGPU-Sim uArch:    0   1   2   3   4
GPGPU-Sim uArch:    5   6   7   8   9
GPGPU-Sim uArch:   10  11  12  13  14
GPGPU-Sim uArch:   15  16  17  18  19
GPGPU-Sim uArch:   20  21  22  23  24
GPGPU-Sim uArch:   25  26
GPGPU-Sim uArch: interconnect node reverse map (icntID to shaderID+MemID)
GPGPU-Sim uArch: Memory nodes start from ID: 15
GPGPU-Sim uArch:    0   1   2   3   4
GPGPU-Sim uArch:    5   6   7   8   9
GPGPU-Sim uArch:   10  11  12  13  14
GPGPU-Sim uArch:   15  16  17  18  19
GPGPU-Sim uArch:   20  21  22  23  24
GPGPU-Sim uArch:   25  26
2fc6c4a4866ba2fe1a5c1b5eda585f2f  /home/ece786/NVIDIA_GPU_Computing_SDK/C/bin/linux/release/matrix
GPGPU-Sim uArch: performance model initialization complete.
GPGPU-Sim PTX: FatBin file name extraction has not been tested on 32-bit system.
GPGPU-Sim PTX: __cudaRegisterFatBinary, fat_cubin_handle = 1, filename=matrix.cu
self exe links to: /home/ece786/NVIDIA_GPU_Computing_SDK/C/bin/linux/release/matrix
Running md5sum using "md5sum /home/ece786/NVIDIA_GPU_Computing_SDK/C/bin/linux/release/matrix "
Running cuobjdump using "$CUDA_INSTALL_PATH/bin/cuobjdump -ptx -elf -sass /home/ece786/NVIDIA_GPU_Computing_SDK/C/bin/linux/release/matrix > _cuobjdump_complete_output_d9DshO"
Parsing file _cuobjdump_complete_output_d9DshO
######### cuobjdump parser ########
## Adding new section PTX
Adding ptx filename: _cuobjdump_1.ptx
Adding arch: sm_10
Adding identifier: matrix.cu
## Adding new section ELF
Adding arch: sm_10
Adding identifier: matrix.cu
## Adding new section PTX
Adding ptx filename: _cuobjdump_2.ptx
Adding arch: sm_20
Adding identifier: matrix.cu
## Adding new section ELF
Adding arch: sm_20
Adding identifier: matrix.cu
Done parsing!!!
GPGPU-Sim PTX: __cudaRegisterFunction _Z10testKernelPfS_S_jjjj : hostFun 0x0x804b4c0, fat_cubin_handle = 1
GPGPU-Sim PTX: allocating shared region for "__cuda___cuda_local_var_35266_35_non_const_shm_matrixB28" from 0x0 to 0x0 (shared memory space)
GPGPU-Sim PTX: allocating shared region for "__cuda___cuda_local_var_35269_35_non_const_shm_subMatrixA284" from 0x100 to 0x0 (shared memory space)
GPGPU-Sim PTX: instruction assembly for function '_Z10testKernelPfS_S_jjjj'...   done.
GPGPU-Sim PTX: finding reconvergence points for '_Z10testKernelPfS_S_jjjj'...
GPGPU-Sim PTX: Finding dominators for '_Z10testKernelPfS_S_jjjj'...
GPGPU-Sim PTX: Finding immediate dominators for '_Z10testKernelPfS_S_jjjj'...
GPGPU-Sim PTX: Finding postdominators for '_Z10testKernelPfS_S_jjjj'...
GPGPU-Sim PTX: Finding immediate postdominators for '_Z10testKernelPfS_S_jjjj'...
GPGPU-Sim PTX: pre-decoding instructions for '_Z10testKernelPfS_S_jjjj'...
GPGPU-Sim PTX: reconvergence points for _Z10testKernelPfS_S_jjjj...
GPGPU-Sim PTX:  1 (potential) branch divergence @  PC=0x018 (_1.ptx:70) @%p1 bra $Lt_0_6658;
GPGPU-Sim PTX:    immediate post dominator      @  PC=0x058 (_1.ptx:80) mov.u32 %r3, __cuda___cuda_local_var_35266_35_non_const_shm_matrixB28;
GPGPU-Sim PTX:  2 (potential) branch divergence @  PC=0x0a8 (_1.ptx:91) @%p2 bra $Lt_0_9730;
GPGPU-Sim PTX:    immediate post dominator      @  PC=0x2a8 (_1.ptx:171) ld.param.u32 %r49, [__cudaparm__Z10testKernelPfS_S_jjjj_d_matrixC];
GPGPU-Sim PTX:  3 (potential) branch divergence @  PC=0x148 (_1.ptx:113) @%p5 bra $Lt_0_7938;
GPGPU-Sim PTX:    immediate post dominator      @  PC=0x198 (_1.ptx:126) bar.sync 0;
GPGPU-Sim PTX:  4 (potential) branch divergence @  PC=0x1a0 (_1.ptx:127) @!%p3 bra $Lt_0_8450;
GPGPU-Sim PTX:    immediate post dominator      @  PC=0x270 (_1.ptx:161) bar.sync 0;
GPGPU-Sim PTX:  5 (potential) branch divergence @  PC=0x1c0 (_1.ptx:134) @!%p4 bra $Lt_0_10754;
GPGPU-Sim PTX:    immediate post dominator      @  PC=0x258 (_1.ptx:156) add.s32 %r38, %r38, 1;
GPGPU-Sim PTX:  6 (potential) branch divergence @  PC=0x1d0 (_1.ptx:136) @%p6 bra $Lt_0_10754;
GPGPU-Sim PTX:    immediate post dominator      @  PC=0x258 (_1.ptx:156) add.s32 %r38, %r38, 1;
GPGPU-Sim PTX:  7 (potential) branch divergence @  PC=0x1f0 (_1.ptx:140) @%p7 bra $Lt_0_10754;
GPGPU-Sim PTX:    immediate post dominator      @  PC=0x258 (_1.ptx:156) add.s32 %r38, %r38, 1;
GPGPU-Sim PTX:  8 (potential) branch divergence @  PC=0x200 (_1.ptx:142) @%p8 bra $Lt_0_10754;
GPGPU-Sim PTX:    immediate post dominator      @  PC=0x258 (_1.ptx:156) add.s32 %r38, %r38, 1;
GPGPU-Sim PTX:  9 (potential) branch divergence @  PC=0x268 (_1.ptx:158) @%p9 bra $Lt_0_8962;
GPGPU-Sim PTX:    immediate post dominator      @  PC=0x270 (_1.ptx:161) bar.sync 0;
GPGPU-Sim PTX: 10 (potential) branch divergence @  PC=0x288 (_1.ptx:164) @%p10 bra $Lt_0_7682;
GPGPU-Sim PTX:    immediate post dominator      @  PC=0x290 (_1.ptx:165) bra.uni $Lt_0_7170;
GPGPU-Sim PTX: 11 (potential) branch divergence @  PC=0x290 (_1.ptx:165) bra.uni $Lt_0_7170;
GPGPU-Sim PTX:    immediate post dominator      @  PC=0x2a8 (_1.ptx:171) ld.param.u32 %r49, [__cudaparm__Z10testKernelPfS_S_jjjj_d_matrixC];
GPGPU-Sim PTX: ... end of reconvergence points for _Z10testKernelPfS_S_jjjj
GPGPU-Sim PTX: ... done pre-decoding instructions for '_Z10testKernelPfS_S_jjjj'.
GPGPU-Sim PTX: finished parsing EMBEDDED .ptx file _1.ptx
Adding _cuobjdump_2.ptx with cubin handle 1
GPGPU-Sim PTX: extracting embedded .ptx to temporary file "_ptx_FgFvx1"
Running: cat _ptx_FgFvx1 | sed 's/.version 1.5/.version 1.4/' | sed 's/, texmode_independent//' | sed 's/\(\.extern \.const\[1\] .b8 \w\+\)\[\]/\1\[1\]/' | sed 's/const\[.\]/const\[0\]/g' > _ptx2_1kGyNe
GPGPU-Sim PTX: generating ptxinfo using "$CUDA_INSTALL_PATH/bin/ptxas --gpu-name=sm_20 -v _ptx2_1kGyNe --output-file  /dev/null 2> _ptx_FgFvx1info"
GPGPU-Sim PTX: Kernel '_Z10testKernelPfS_S_jjjj' : regs=12, lmem=0, smem=1280, cmem=60
GPGPU-Sim PTX: removing ptxinfo using "rm -f _ptx_FgFvx1 _ptx2_1kGyNe _ptx_FgFvx1info"
GPGPU-Sim PTX: loading globals with explicit initializers... 
GPGPU-Sim PTX: finished loading globals (0 bytes total).
GPGPU-Sim PTX: loading constants with explicit initializers...  done.
initalize A
matrix A
matrix B
Start Timer

GPGPU-Sim PTX: cudaLaunch for 0x0x804b4c0 (mode=performance simulation) on stream 0
GPGPU-Sim PTX: pushing kernel '_Z10testKernelPfS_S_jjjj' to stream 0, gridDim= (1,256,1) blockDim = (256,1,1) 
kernel '_Z10testKernelPfS_S_jjjj' transfer to GPU hardware scheduler
GPGPU-Sim uArch: Shader 1 bind to kernel 1 '_Z10testKernelPfS_S_jjjj'
GPGPU-Sim uArch: CTA/core = 6, limited by: threads
GPGPU-Sim uArch: core:  1, cta: 0 initialized @(1,0)
GPGPU-Sim uArch: Shader 2 bind to kernel 1 '_Z10testKernelPfS_S_jjjj'
GPGPU-Sim uArch: core:  2, cta: 0 initialized @(1,0)
GPGPU-Sim uArch: Shader 3 bind to kernel 1 '_Z10testKernelPfS_S_jjjj'
GPGPU-Sim uArch: core:  3, cta: 0 initialized @(1,0)
GPGPU-Sim uArch: Shader 4 bind to kernel 1 '_Z10testKernelPfS_S_jjjj'
GPGPU-Sim uArch: core:  4, cta: 0 initialized @(1,0)
GPGPU-Sim uArch: Shader 5 bind to kernel 1 '_Z10testKernelPfS_S_jjjj'
GPGPU-Sim uArch: core:  5, cta: 0 initialized @(1,0)
GPGPU-Sim uArch: Shader 6 bind to kernel 1 '_Z10testKernelPfS_S_jjjj'
GPGPU-Sim uArch: core:  6, cta: 0 initialized @(1,0)
GPGPU-Sim uArch: Shader 7 bind to kernel 1 '_Z10testKernelPfS_S_jjjj'
GPGPU-Sim uArch: core:  7, cta: 0 initialized @(1,0)
GPGPU-Sim uArch: Shader 8 bind to kernel 1 '_Z10testKernelPfS_S_jjjj'
GPGPU-Sim uArch: core:  8, cta: 0 initialized @(1,0)
GPGPU-Sim uArch: Shader 9 bind to kernel 1 '_Z10testKernelPfS_S_jjjj'
GPGPU-Sim uArch: core:  9, cta: 0 initialized @(1,0)
GPGPU-Sim uArch: Shader 10 bind to kernel 1 '_Z10testKernelPfS_S_jjjj'
GPGPU-Sim uArch: core: 10, cta: 0 initialized @(1,0)
GPGPU-Sim uArch: Shader 11 bind to kernel 1 '_Z10testKernelPfS_S_jjjj'
GPGPU-Sim uArch: core: 11, cta: 0 initialized @(1,0)
GPGPU-Sim uArch: Shader 12 bind to kernel 1 '_Z10testKernelPfS_S_jjjj'
GPGPU-Sim uArch: core: 12, cta: 0 initialized @(1,0)
GPGPU-Sim uArch: Shader 13 bind to kernel 1 '_Z10testKernelPfS_S_jjjj'
GPGPU-Sim uArch: core: 13, cta: 0 initialized @(1,0)
GPGPU-Sim uArch: Shader 14 bind to kernel 1 '_Z10testKernelPfS_S_jjjj'
GPGPU-Sim uArch: core: 14, cta: 0 initialized @(1,0)
GPGPU-Sim uArch: Shader 0 bind to kernel 1 '_Z10testKernelPfS_S_jjjj'
GPGPU-Sim uArch: core:  0, cta: 0 initialized @(1,0)
GPGPU-Sim uArch: core:  1, cta: 1 initialized @(2,0)
GPGPU-Sim uArch: core:  2, cta: 1 initialized @(2,0)
GPGPU-Sim uArch: core:  3, cta: 1 initialized @(2,0)
GPGPU-Sim uArch: core:  4, cta: 1 initialized @(2,0)
GPGPU-Sim uArch: core:  5, cta: 1 initialized @(2,0)
GPGPU-Sim uArch: core:  6, cta: 1 initialized @(2,0)
GPGPU-Sim uArch: core:  7, cta: 1 initialized @(2,0)
GPGPU-Sim uArch: core:  8, cta: 1 initialized @(2,0)
GPGPU-Sim uArch: core:  9, cta: 1 initialized @(2,0)
GPGPU-Sim uArch: core: 10, cta: 1 initialized @(2,0)
GPGPU-Sim uArch: core: 11, cta: 1 initialized @(2,0)
GPGPU-Sim uArch: core: 12, cta: 1 initialized @(2,0)
GPGPU-Sim uArch: core: 13, cta: 1 initialized @(2,0)
GPGPU-Sim uArch: core: 14, cta: 1 initialized @(2,0)
GPGPU-Sim uArch: core:  0, cta: 1 initialized @(2,0)
GPGPU-Sim uArch: core:  1, cta: 2 initialized @(3,0)
GPGPU-Sim uArch: core:  2, cta: 2 initialized @(3,0)
GPGPU-Sim uArch: core:  3, cta: 2 initialized @(3,0)
GPGPU-Sim uArch: core:  4, cta: 2 initialized @(3,0)
GPGPU-Sim uArch: core:  5, cta: 2 initialized @(3,0)
GPGPU-Sim uArch: core:  6, cta: 2 initialized @(3,0)
GPGPU-Sim uArch: core:  7, cta: 2 initialized @(3,0)
GPGPU-Sim uArch: core:  8, cta: 2 initialized @(3,0)
GPGPU-Sim uArch: core:  9, cta: 2 initialized @(3,0)
GPGPU-Sim uArch: core: 10, cta: 2 initialized @(3,0)
GPGPU-Sim uArch: core: 11, cta: 2 initialized @(3,0)
GPGPU-Sim uArch: core: 12, cta: 2 initialized @(3,0)
GPGPU-Sim uArch: core: 13, cta: 2 initialized @(3,0)
GPGPU-Sim uArch: core: 14, cta: 2 initialized @(3,0)
GPGPU-Sim uArch: core:  0, cta: 2 initialized @(3,0)
GPGPU-Sim uArch: core:  1, cta: 3 initialized @(4,0)
GPGPU-Sim uArch: core:  2, cta: 3 initialized @(4,0)
GPGPU-Sim uArch: core:  3, cta: 3 initialized @(4,0)
GPGPU-Sim uArch: core:  4, cta: 3 initialized @(4,0)
GPGPU-Sim uArch: core:  5, cta: 3 initialized @(4,0)
GPGPU-Sim uArch: core:  6, cta: 3 initialized @(4,0)
GPGPU-Sim uArch: core:  7, cta: 3 initialized @(4,0)
GPGPU-Sim uArch: core:  8, cta: 3 initialized @(4,0)
GPGPU-Sim uArch: core:  9, cta: 3 initialized @(4,0)
GPGPU-Sim uArch: core: 10, cta: 3 initialized @(4,0)
GPGPU-Sim uArch: core: 11, cta: 3 initialized @(4,0)
GPGPU-Sim uArch: core: 12, cta: 3 initialized @(4,0)
GPGPU-Sim uArch: core: 13, cta: 3 initialized @(4,0)
GPGPU-Sim uArch: core: 14, cta: 3 initialized @(4,0)
GPGPU-Sim uArch: core:  0, cta: 3 initialized @(4,0)
GPGPU-Sim uArch: core:  1, cta: 4 initialized @(5,0)
GPGPU-Sim uArch: core:  2, cta: 4 initialized @(5,0)
GPGPU-Sim uArch: core:  3, cta: 4 initialized @(5,0)
GPGPU-Sim uArch: core:  4, cta: 4 initialized @(5,0)
GPGPU-Sim uArch: core:  5, cta: 4 initialized @(5,0)
GPGPU-Sim uArch: core:  6, cta: 4 initialized @(5,0)
GPGPU-Sim uArch: core:  7, cta: 4 initialized @(5,0)
GPGPU-Sim uArch: core:  8, cta: 4 initialized @(5,0)
GPGPU-Sim uArch: core:  9, cta: 4 initialized @(5,0)
GPGPU-Sim uArch: core: 10, cta: 4 initialized @(5,0)
GPGPU-Sim uArch: core: 11, cta: 4 initialized @(5,0)
GPGPU-Sim uArch: core: 12, cta: 4 initialized @(5,0)
GPGPU-Sim uArch: core: 13, cta: 4 initialized @(5,0)
GPGPU-Sim uArch: core: 14, cta: 4 initialized @(5,0)
GPGPU-Sim uArch: core:  0, cta: 4 initialized @(5,0)
GPGPU-Sim uArch: core:  1, cta: 5 initialized @(6,0)
GPGPU-Sim uArch: core:  2, cta: 5 initialized @(6,0)
GPGPU-Sim uArch: core:  3, cta: 5 initialized @(6,0)
GPGPU-Sim uArch: core:  4, cta: 5 initialized @(6,0)
GPGPU-Sim uArch: core:  5, cta: 5 initialized @(6,0)
GPGPU-Sim uArch: core:  6, cta: 5 initialized @(6,0)
GPGPU-Sim uArch: core:  7, cta: 5 initialized @(6,0)
GPGPU-Sim uArch: core:  8, cta: 5 initialized @(6,0)
GPGPU-Sim uArch: core:  9, cta: 5 initialized @(6,0)
GPGPU-Sim uArch: core: 10, cta: 5 initialized @(6,0)
GPGPU-Sim uArch: core: 11, cta: 5 initialized @(6,0)
GPGPU-Sim uArch: core: 12, cta: 5 initialized @(6,0)
GPGPU-Sim uArch: core: 13, cta: 5 initialized @(6,0)
GPGPU-Sim uArch: core: 14, cta: 5 initialized @(6,0)
GPGPU-Sim uArch: core:  0, cta: 5 initialized @(6,0)
GPGPU-Sim PTX: 100000 instructions simulated : ctaid=(0,62,0) tid=(127,0,0)
GPGPU-Sim uArch: cycles simulated: 500  inst.: 120480 (ipc=241.0) sim_rate=120480 (inst/sec) elapsed = 0:0:00:01 / Tue Mar 10 19:48:51 2015
GPGPU-Sim PTX: 200000 instructions simulated : ctaid=(0,84,0) tid=(63,0,0)
GPGPU-Sim PTX: 300000 instructions simulated : ctaid=(0,9,0) tid=(223,0,0)
GPGPU-Sim PTX: 400000 instructions simulated : ctaid=(0,76,0) tid=(31,0,0)
GPGPU-Sim PTX: 500000 instructions simulated : ctaid=(0,12,0) tid=(95,0,0)
GPGPU-Sim PTX: 600000 instructions simulated : ctaid=(0,60,0) tid=(191,0,0)
GPGPU-Sim uArch: cycles simulated: 2000  inst.: 632608 (ipc=316.3) sim_rate=316304 (inst/sec) elapsed = 0:0:00:02 / Tue Mar 10 19:48:52 2015
GPGPU-Sim PTX: 700000 instructions simulated : ctaid=(0,22,0) tid=(223,0,0)
GPGPU-Sim PTX: 800000 instructions simulated : ctaid=(0,31,0) tid=(191,0,0)
GPGPU-Sim PTX: 900000 instructions simulated : ctaid=(0,84,0) tid=(191,0,0)
GPGPU-Sim uArch: cycles simulated: 2500  inst.: 922944 (ipc=369.2) sim_rate=307648 (inst/sec) elapsed = 0:0:00:03 / Tue Mar 10 19:48:53 2015
GPGPU-Sim PTX: 1000000 instructions simulated : ctaid=(0,1,0) tid=(63,0,0)
GPGPU-Sim PTX: 1100000 instructions simulated : ctaid=(0,16,0) tid=(63,0,0)
GPGPU-Sim PTX: 1200000 instructions simulated : ctaid=(0,37,0) tid=(255,0,0)
GPGPU-Sim PTX: 1300000 instructions simulated : ctaid=(0,22,0) tid=(64,0,0)
GPGPU-Sim PTX: 1400000 instructions simulated : ctaid=(0,28,0) tid=(140,0,0)
GPGPU-Sim PTX: 1500000 instructions simulated : ctaid=(0,9,0) tid=(213,0,0)
GPGPU-Sim PTX: 1600000 instructions simulated : ctaid=(0,6,0) tid=(250,0,0)
GPGPU-Sim uArch: cycles simulated: 3500  inst.: 1446197 (ipc=413.2) sim_rate=361549 (inst/sec) elapsed = 0:0:00:04 / Tue Mar 10 19:48:54 2015
GPGPU-Sim PTX: 1700000 instructions simulated : ctaid=(0,41,0) tid=(158,0,0)
GPGPU-Sim PTX: 1800000 instructions simulated : ctaid=(0,27,0) tid=(27,0,0)
GPGPU-Sim PTX: 1900000 instructions simulated : ctaid=(0,36,0) tid=(112,0,0)
GPGPU-Sim PTX: 2000000 instructions simulated : ctaid=(0,24,0) tid=(78,0,0)
GPGPU-Sim uArch: cycles simulated: 4000  inst.: 1808038 (ipc=452.0) sim_rate=361607 (inst/sec) elapsed = 0:0:00:05 / Tue Mar 10 19:48:55 2015
GPGPU-Sim PTX: 2100000 instructions simulated : ctaid=(0,29,0) tid=(193,0,0)
GPGPU-Sim PTX: 2200000 instructions simulated : ctaid=(0,5,0) tid=(232,0,0)
GPGPU-Sim PTX: 2300000 instructions simulated : ctaid=(0,4,0) tid=(139,0,0)
GPGPU-Sim PTX: 2400000 instructions simulated : ctaid=(0,67,0) tid=(23,0,0)
GPGPU-Sim PTX: 2500000 instructions simulated : ctaid=(0,67,0) tid=(146,0,0)
GPGPU-Sim uArch: cycles simulated: 4500  inst.: 2168147 (ipc=481.8) sim_rate=361357 (inst/sec) elapsed = 0:0:00:06 / Tue Mar 10 19:48:56 2015
GPGPU-Sim PTX: 2600000 instructions simulated : ctaid=(0,50,0) tid=(107,0,0)
GPGPU-Sim PTX: 2700000 instructions simulated : ctaid=(0,15,0) tid=(246,0,0)
GPGPU-Sim PTX: 2800000 instructions simulated : ctaid=(0,72,0) tid=(80,0,0)
GPGPU-Sim PTX: 2900000 instructions simulated : ctaid=(0,12,0) tid=(154,0,0)
GPGPU-Sim uArch: cycles simulated: 5000  inst.: 2528689 (ipc=505.7) sim_rate=361241 (inst/sec) elapsed = 0:0:00:07 / Tue Mar 10 19:48:57 2015
GPGPU-Sim PTX: 3000000 instructions simulated : ctaid=(0,51,0) tid=(205,0,0)
GPGPU-Sim PTX: 3100000 instructions simulated : ctaid=(0,39,0) tid=(206,0,0)
GPGPU-Sim PTX: 3200000 instructions simulated : ctaid=(0,82,0) tid=(6,0,0)
GPGPU-Sim PTX: 3300000 instructions simulated : ctaid=(0,52,0) tid=(194,0,0)
GPGPU-Sim uArch: cycles simulated: 5500  inst.: 2891231 (ipc=525.7) sim_rate=361403 (inst/sec) elapsed = 0:0:00:08 / Tue Mar 10 19:48:58 2015
GPGPU-Sim PTX: 3400000 instructions simulated : ctaid=(0,43,0) tid=(55,0,0)
GPGPU-Sim PTX: 3500000 instructions simulated : ctaid=(0,39,0) tid=(246,0,0)
GPGPU-Sim PTX: 3600000 instructions simulated : ctaid=(0,64,0) tid=(20,0,0)
GPGPU-Sim PTX: 3700000 instructions simulated : ctaid=(0,31,0) tid=(13,0,0)
GPGPU-Sim PTX: 3800000 instructions simulated : ctaid=(0,15,0) tid=(255,0,0)
GPGPU-Sim uArch: cycles simulated: 6000  inst.: 3253185 (ipc=542.2) sim_rate=361465 (inst/sec) elapsed = 0:0:00:09 / Tue Mar 10 19:48:59 2015
GPGPU-Sim PTX: 3900000 instructions simulated : ctaid=(0,70,0) tid=(64,0,0)
GPGPU-Sim PTX: 4000000 instructions simulated : ctaid=(0,20,0) tid=(33,0,0)
GPGPU-Sim PTX: 4100000 instructions simulated : ctaid=(0,56,0) tid=(202,0,0)
GPGPU-Sim PTX: 4200000 instructions simulated : ctaid=(0,74,0) tid=(144,0,0)
GPGPU-Sim uArch: cycles simulated: 6500  inst.: 3619279 (ipc=556.8) sim_rate=361927 (inst/sec) elapsed = 0:0:00:10 / Tue Mar 10 19:49:00 2015
GPGPU-Sim PTX: 4300000 instructions simulated : ctaid=(0,83,0) tid=(60,0,0)
GPGPU-Sim PTX: 4400000 instructions simulated : ctaid=(0,58,0) tid=(195,0,0)
GPGPU-Sim PTX: 4500000 instructions simulated : ctaid=(0,45,0) tid=(131,0,0)
GPGPU-Sim PTX: 4600000 instructions simulated : ctaid=(0,70,0) tid=(205,0,0)
GPGPU-Sim PTX: 4700000 instructions simulated : ctaid=(0,47,0) tid=(209,0,0)
GPGPU-Sim uArch: cycles simulated: 7000  inst.: 3985571 (ipc=569.4) sim_rate=362324 (inst/sec) elapsed = 0:0:00:11 / Tue Mar 10 19:49:01 2015
GPGPU-Sim PTX: 4800000 instructions simulated : ctaid=(0,31,0) tid=(10,0,0)
GPGPU-Sim PTX: 4900000 instructions simulated : ctaid=(0,1,0) tid=(28,0,0)
GPGPU-Sim PTX: 5000000 instructions simulated : ctaid=(0,49,0) tid=(205,0,0)
GPGPU-Sim PTX: 5100000 instructions simulated : ctaid=(0,27,0) tid=(63,0,0)
GPGPU-Sim uArch: cycles simulated: 7500  inst.: 4352035 (ipc=580.3) sim_rate=362669 (inst/sec) elapsed = 0:0:00:12 / Tue Mar 10 19:49:02 2015
GPGPU-Sim PTX: 5200000 instructions simulated : ctaid=(0,33,0) tid=(69,0,0)
GPGPU-Sim PTX: 5300000 instructions simulated : ctaid=(0,73,0) tid=(176,0,0)
GPGPU-Sim PTX: 5400000 instructions simulated : ctaid=(0,60,0) tid=(202,0,0)
GPGPU-Sim PTX: 5500000 instructions simulated : ctaid=(0,12,0) tid=(25,0,0)
GPGPU-Sim PTX: 5600000 instructions simulated : ctaid=(0,35,0) tid=(51,0,0)
GPGPU-Sim PTX: 5700000 instructions simulated : ctaid=(0,11,0) tid=(72,0,0)
GPGPU-Sim PTX: 5800000 instructions simulated : ctaid=(0,15,0) tid=(86,0,0)
GPGPU-Sim PTX: 5900000 instructions simulated : ctaid=(0,7,0) tid=(90,0,0)
GPGPU-Sim PTX: 6000000 instructions simulated : ctaid=(0,56,0) tid=(116,0,0)
GPGPU-Sim uArch: cycles simulated: 8500  inst.: 5075800 (ipc=597.2) sim_rate=390446 (inst/sec) elapsed = 0:0:00:13 / Tue Mar 10 19:49:03 2015
GPGPU-Sim PTX: 6100000 instructions simulated : ctaid=(0,66,0) tid=(36,0,0)
GPGPU-Sim PTX: 6200000 instructions simulated : ctaid=(0,25,0) tid=(49,0,0)
GPGPU-Sim PTX: 6300000 instructions simulated : ctaid=(0,23,0) tid=(208,0,0)
GPGPU-Sim PTX: 6400000 instructions simulated : ctaid=(0,85,0) tid=(200,0,0)
GPGPU-Sim uArch: cycles simulated: 9000  inst.: 5437535 (ipc=604.2) sim_rate=388395 (inst/sec) elapsed = 0:0:00:14 / Tue Mar 10 19:49:04 2015
GPGPU-Sim PTX: 6500000 instructions simulated : ctaid=(0,24,0) tid=(111,0,0)
GPGPU-Sim PTX: 6600000 instructions simulated : ctaid=(0,36,0) tid=(30,0,0)
GPGPU-Sim PTX: 6700000 instructions simulated : ctaid=(0,43,0) tid=(227,0,0)
GPGPU-Sim PTX: 6800000 instructions simulated : ctaid=(0,46,0) tid=(86,0,0)
GPGPU-Sim PTX: 6900000 instructions simulated : ctaid=(0,75,0) tid=(193,0,0)
GPGPU-Sim uArch: cycles simulated: 9500  inst.: 5806031 (ipc=611.2) sim_rate=387068 (inst/sec) elapsed = 0:0:00:15 / Tue Mar 10 19:49:05 2015
GPGPU-Sim PTX: 7000000 instructions simulated : ctaid=(0,50,0) tid=(200,0,0)
GPGPU-Sim PTX: 7100000 instructions simulated : ctaid=(0,49,0) tid=(135,0,0)
GPGPU-Sim PTX: 7200000 instructions simulated : ctaid=(0,73,0) tid=(157,0,0)
GPGPU-Sim PTX: 7300000 instructions simulated : ctaid=(0,3,0) tid=(177,0,0)
GPGPU-Sim uArch: cycles simulated: 10000  inst.: 6176404 (ipc=617.6) sim_rate=386025 (inst/sec) elapsed = 0:0:00:16 / Tue Mar 10 19:49:06 2015
GPGPU-Sim PTX: 7400000 instructions simulated : ctaid=(0,52,0) tid=(3,0,0)
GPGPU-Sim PTX: 7500000 instructions simulated : ctaid=(0,23,0) tid=(28,0,0)
GPGPU-Sim PTX: 7600000 instructions simulated : ctaid=(0,28,0) tid=(176,0,0)
GPGPU-Sim PTX: 7700000 instructions simulated : ctaid=(0,76,0) tid=(58,0,0)
GPGPU-Sim uArch: cycles simulated: 10500  inst.: 6538843 (ipc=622.7) sim_rate=384637 (inst/sec) elapsed = 0:0:00:17 / Tue Mar 10 19:49:07 2015
GPGPU-Sim PTX: 7800000 instructions simulated : ctaid=(0,5,0) tid=(51,0,0)
GPGPU-Sim PTX: 7900000 instructions simulated : ctaid=(0,24,0) tid=(63,0,0)
GPGPU-Sim PTX: 8000000 instructions simulated : ctaid=(0,54,0) tid=(29,0,0)
GPGPU-Sim PTX: 8100000 instructions simulated : ctaid=(0,60,0) tid=(72,0,0)
GPGPU-Sim PTX: 8200000 instructions simulated : ctaid=(0,5,0) tid=(23,0,0)
GPGPU-Sim uArch: cycles simulated: 11000  inst.: 6904840 (ipc=627.7) sim_rate=383602 (inst/sec) elapsed = 0:0:00:18 / Tue Mar 10 19:49:08 2015
GPGPU-Sim PTX: 8300000 instructions simulated : ctaid=(0,14,0) tid=(167,0,0)
GPGPU-Sim PTX: 8400000 instructions simulated : ctaid=(0,38,0) tid=(183,0,0)
GPGPU-Sim PTX: 8500000 instructions simulated : ctaid=(0,56,0) tid=(10,0,0)
GPGPU-Sim PTX: 8600000 instructions simulated : ctaid=(0,30,0) tid=(114,0,0)
GPGPU-Sim uArch: cycles simulated: 11500  inst.: 7270924 (ipc=632.3) sim_rate=382680 (inst/sec) elapsed = 0:0:00:19 / Tue Mar 10 19:49:09 2015
GPGPU-Sim PTX: 8700000 instructions simulated : ctaid=(0,29,0) tid=(197,0,0)
GPGPU-Sim PTX: 8800000 instructions simulated : ctaid=(0,2,0) tid=(5,0,0)
GPGPU-Sim PTX: 8900000 instructions simulated : ctaid=(0,20,0) tid=(220,0,0)
GPGPU-Sim PTX: 9000000 instructions simulated : ctaid=(0,14,0) tid=(175,0,0)
GPGPU-Sim PTX: 9100000 instructions simulated : ctaid=(0,31,0) tid=(143,0,0)
GPGPU-Sim uArch: cycles simulated: 12000  inst.: 7630353 (ipc=635.9) sim_rate=381517 (inst/sec) elapsed = 0:0:00:20 / Tue Mar 10 19:49:10 2015
GPGPU-Sim PTX: 9200000 instructions simulated : ctaid=(0,27,0) tid=(231,0,0)
GPGPU-Sim PTX: 9300000 instructions simulated : ctaid=(0,42,0) tid=(166,0,0)
GPGPU-Sim PTX: 9400000 instructions simulated : ctaid=(0,16,0) tid=(123,0,0)
GPGPU-Sim PTX: 9500000 instructions simulated : ctaid=(0,77,0) tid=(218,0,0)
GPGPU-Sim PTX: 9600000 instructions simulated : ctaid=(0,37,0) tid=(148,0,0)
GPGPU-Sim PTX: 9700000 instructions simulated : ctaid=(0,12,0) tid=(204,0,0)
GPGPU-Sim PTX: 9800000 instructions simulated : ctaid=(0,7,0) tid=(200,0,0)
GPGPU-Sim PTX: 9900000 instructions simulated : ctaid=(0,44,0) tid=(7,0,0)
GPGPU-Sim uArch: cycles simulated: 13000  inst.: 8358779 (ipc=643.0) sim_rate=398037 (inst/sec) elapsed = 0:0:00:21 / Tue Mar 10 19:49:11 2015
GPGPU-Sim PTX: 10000000 instructions simulated : ctaid=(0,12,0) tid=(90,0,0)
GPGPU-Sim PTX: 10100000 instructions simulated : ctaid=(0,27,0) tid=(117,0,0)
GPGPU-Sim PTX: 10200000 instructions simulated : ctaid=(0,6,0) tid=(31,0,0)
GPGPU-Sim PTX: 10300000 instructions simulated : ctaid=(0,17,0) tid=(143,0,0)
GPGPU-Sim PTX: 10400000 instructions simulated : ctaid=(0,33,0) tid=(26,0,0)
GPGPU-Sim uArch: cycles simulated: 13500  inst.: 8724601 (ipc=646.3) sim_rate=396572 (inst/sec) elapsed = 0:0:00:22 / Tue Mar 10 19:49:12 2015
GPGPU-Sim PTX: 10500000 instructions simulated : ctaid=(0,3,0) tid=(236,0,0)
GPGPU-Sim PTX: 10600000 instructions simulated : ctaid=(0,35,0) tid=(235,0,0)
GPGPU-Sim PTX: 10700000 instructions simulated : ctaid=(0,34,0) tid=(57,0,0)
GPGPU-Sim PTX: 10800000 instructions simulated : ctaid=(0,18,0) tid=(135,0,0)
GPGPU-Sim uArch: cycles simulated: 14000  inst.: 9089617 (ipc=649.3) sim_rate=395200 (inst/sec) elapsed = 0:0:00:23 / Tue Mar 10 19:49:13 2015
GPGPU-Sim PTX: 10900000 instructions simulated : ctaid=(0,27,0) tid=(92,0,0)
GPGPU-Sim PTX: 11000000 instructions simulated : ctaid=(0,7,0) tid=(134,0,0)
GPGPU-Sim PTX: 11100000 instructions simulated : ctaid=(0,9,0) tid=(91,0,0)
GPGPU-Sim PTX: 11200000 instructions simulated : ctaid=(0,11,0) tid=(162,0,0)
GPGPU-Sim uArch: cycles simulated: 14500  inst.: 9451026 (ipc=651.8) sim_rate=393792 (inst/sec) elapsed = 0:0:00:24 / Tue Mar 10 19:49:14 2015
GPGPU-Sim PTX: 11300000 instructions simulated : ctaid=(0,42,0) tid=(60,0,0)
GPGPU-Sim PTX: 11400000 instructions simulated : ctaid=(0,26,0) tid=(69,0,0)
GPGPU-Sim PTX: 11500000 instructions simulated : ctaid=(0,9,0) tid=(253,0,0)
GPGPU-Sim PTX: 11600000 instructions simulated : ctaid=(0,24,0) tid=(165,0,0)
GPGPU-Sim PTX: 11700000 instructions simulated : ctaid=(0,34,0) tid=(250,0,0)
GPGPU-Sim uArch: cycles simulated: 15000  inst.: 9812168 (ipc=654.1) sim_rate=392486 (inst/sec) elapsed = 0:0:00:25 / Tue Mar 10 19:49:15 2015
GPGPU-Sim PTX: 11800000 instructions simulated : ctaid=(0,4,0) tid=(169,0,0)
GPGPU-Sim PTX: 11900000 instructions simulated : ctaid=(0,13,0) tid=(34,0,0)
GPGPU-Sim PTX: 12000000 instructions simulated : ctaid=(0,17,0) tid=(180,0,0)
GPGPU-Sim PTX: 12100000 instructions simulated : ctaid=(0,12,0) tid=(189,0,0)
GPGPU-Sim uArch: cycles simulated: 15500  inst.: 10173846 (ipc=656.4) sim_rate=391301 (inst/sec) elapsed = 0:0:00:26 / Tue Mar 10 19:49:16 2015
GPGPU-Sim uArch: Shader 1 finished CTA #0 (15531,0), 5 CTAs running
GPGPU-Sim uArch: core:  1, cta: 0 initialized @(15532,0)
GPGPU-Sim PTX: 12200000 instructions simulated : ctaid=(0,32,0) tid=(124,0,0)
GPGPU-Sim PTX: 12300000 instructions simulated : ctaid=(0,5,0) tid=(87,0,0)
GPGPU-Sim PTX: 12400000 instructions simulated : ctaid=(0,38,0) tid=(136,0,0)
GPGPU-Sim PTX: 12500000 instructions simulated : ctaid=(0,19,0) tid=(164,0,0)
GPGPU-Sim uArch: cycles simulated: 16000  inst.: 10543786 (ipc=659.0) sim_rate=390510 (inst/sec) elapsed = 0:0:00:27 / Tue Mar 10 19:49:17 2015
GPGPU-Sim PTX: 12600000 instructions simulated : ctaid=(0,36,0) tid=(43,0,0)
GPGPU-Sim PTX: 12700000 instructions simulated : ctaid=(0,63,0) tid=(129,0,0)
GPGPU-Sim PTX: 12800000 instructions simulated : ctaid=(0,39,0) tid=(4,0,0)
GPGPU-Sim PTX: 12900000 instructions simulated : ctaid=(0,46,0) tid=(68,0,0)
GPGPU-Sim PTX: 13000000 instructions simulated : ctaid=(0,83,0) tid=(120,0,0)
GPGPU-Sim PTX: 13100000 instructions simulated : ctaid=(0,18,0) tid=(194,0,0)
GPGPU-Sim PTX: 13200000 instructions simulated : ctaid=(0,27,0) tid=(117,0,0)
GPGPU-Sim PTX: 13300000 instructions simulated : ctaid=(0,23,0) tid=(42,0,0)
GPGPU-Sim PTX: 13400000 instructions simulated : ctaid=(0,18,0) tid=(132,0,0)
GPGPU-Sim uArch: cycles simulated: 17000  inst.: 11271157 (ipc=663.0) sim_rate=402541 (inst/sec) elapsed = 0:0:00:28 / Tue Mar 10 19:49:18 2015
GPGPU-Sim PTX: 13500000 instructions simulated : ctaid=(0,63,0) tid=(185,0,0)
GPGPU-Sim PTX: 13600000 instructions simulated : ctaid=(0,71,0) tid=(105,0,0)
GPGPU-Sim PTX: 13700000 instructions simulated : ctaid=(0,41,0) tid=(16,0,0)
GPGPU-Sim PTX: 13800000 instructions simulated : ctaid=(0,51,0) tid=(155,0,0)
GPGPU-Sim PTX: 13900000 instructions simulated : ctaid=(0,40,0) tid=(247,0,0)
GPGPU-Sim uArch: cycles simulated: 17500  inst.: 11635672 (ipc=664.9) sim_rate=401230 (inst/sec) elapsed = 0:0:00:29 / Tue Mar 10 19:49:19 2015
GPGPU-Sim uArch: Shader 2 finished CTA #0 (17575,0), 5 CTAs running
GPGPU-Sim uArch: core:  2, cta: 0 initialized @(17576,0)
GPGPU-Sim PTX: 14000000 instructions simulated : ctaid=(0,84,0) tid=(46,0,0)
GPGPU-Sim PTX: 14100000 instructions simulated : ctaid=(0,64,0) tid=(187,0,0)
GPGPU-Sim PTX: 14200000 instructions simulated : ctaid=(0,8,0) tid=(101,0,0)
GPGPU-Sim PTX: 14300000 instructions simulated : ctaid=(0,13,0) tid=(112,0,0)
GPGPU-Sim uArch: cycles simulated: 18000  inst.: 11998029 (ipc=666.6) sim_rate=399934 (inst/sec) elapsed = 0:0:00:30 / Tue Mar 10 19:49:20 2015
GPGPU-Sim PTX: 14400000 instructions simulated : ctaid=(0,31,0) tid=(126,0,0)
GPGPU-Sim PTX: 14500000 instructions simulated : ctaid=(0,11,0) tid=(114,0,0)
GPGPU-Sim PTX: 14600000 instructions simulated : ctaid=(0,41,0) tid=(78,0,0)
GPGPU-Sim PTX: 14700000 instructions simulated : ctaid=(0,19,0) tid=(190,0,0)
GPGPU-Sim uArch: cycles simulated: 18500  inst.: 12360981 (ipc=668.2) sim_rate=398741 (inst/sec) elapsed = 0:0:00:31 / Tue Mar 10 19:49:21 2015
GPGPU-Sim PTX: 14800000 instructions simulated : ctaid=(0,17,0) tid=(76,0,0)
GPGPU-Sim PTX: 14900000 instructions simulated : ctaid=(0,12,0) tid=(124,0,0)
GPGPU-Sim PTX: 15000000 instructions simulated : ctaid=(0,10,0) tid=(150,0,0)
GPGPU-Sim PTX: 15100000 instructions simulated : ctaid=(0,69,0) tid=(24,0,0)
GPGPU-Sim PTX: 15200000 instructions simulated : ctaid=(0,8,0) tid=(103,0,0)
GPGPU-Sim uArch: cycles simulated: 19000  inst.: 12724883 (ipc=669.7) sim_rate=397652 (inst/sec) elapsed = 0:0:00:32 / Tue Mar 10 19:49:22 2015
GPGPU-Sim uArch: Shader 3 finished CTA #0 (19060,0), 5 CTAs running
GPGPU-Sim uArch: core:  3, cta: 0 initialized @(19061,0)
GPGPU-Sim PTX: 15300000 instructions simulated : ctaid=(0,21,0) tid=(209,0,0)
GPGPU-Sim PTX: 15400000 instructions simulated : ctaid=(0,79,0) tid=(170,0,0)
GPGPU-Sim PTX: 15500000 instructions simulated : ctaid=(0,73,0) tid=(176,0,0)
GPGPU-Sim PTX: 15600000 instructions simulated : ctaid=(0,52,0) tid=(79,0,0)
GPGPU-Sim uArch: cycles simulated: 19500  inst.: 13091745 (ipc=671.4) sim_rate=396719 (inst/sec) elapsed = 0:0:00:33 / Tue Mar 10 19:49:23 2015
GPGPU-Sim PTX: 15700000 instructions simulated : ctaid=(0,32,0) tid=(110,0,0)
GPGPU-Sim PTX: 15800000 instructions simulated : ctaid=(0,15,0) tid=(174,0,0)
GPGPU-Sim PTX: 15900000 instructions simulated : ctaid=(0,67,0) tid=(90,0,0)
GPGPU-Sim PTX: 16000000 instructions simulated : ctaid=(0,21,0) tid=(138,0,0)
GPGPU-Sim PTX: 16100000 instructions simulated : ctaid=(0,33,0) tid=(236,0,0)
GPGPU-Sim uArch: cycles simulated: 20000  inst.: 13458877 (ipc=672.9) sim_rate=395849 (inst/sec) elapsed = 0:0:00:34 / Tue Mar 10 19:49:24 2015
GPGPU-Sim PTX: 16200000 instructions simulated : ctaid=(0,49,0) tid=(149,0,0)
GPGPU-Sim PTX: 16300000 instructions simulated : ctaid=(0,79,0) tid=(181,0,0)
GPGPU-Sim uArch: Shader 4 finished CTA #0 (20259,0), 5 CTAs running
GPGPU-Sim uArch: core:  4, cta: 0 initialized @(20260,0)
GPGPU-Sim PTX: 16400000 instructions simulated : ctaid=(0,38,0) tid=(24,0,0)
GPGPU-Sim PTX: 16500000 instructions simulated : ctaid=(0,17,0) tid=(118,0,0)
GPGPU-Sim PTX: 16600000 instructions simulated : ctaid=(0,42,0) tid=(175,0,0)
GPGPU-Sim PTX: 16700000 instructions simulated : ctaid=(0,8,0) tid=(93,0,0)
GPGPU-Sim PTX: 16800000 instructions simulated : ctaid=(0,27,0) tid=(228,0,0)
GPGPU-Sim PTX: 16900000 instructions simulated : ctaid=(0,17,0) tid=(228,0,0)
GPGPU-Sim uArch: cycles simulated: 21000  inst.: 14192604 (ipc=675.8) sim_rate=405502 (inst/sec) elapsed = 0:0:00:35 / Tue Mar 10 19:49:25 2015
GPGPU-Sim PTX: 17000000 instructions simulated : ctaid=(0,21,0) tid=(163,0,0)
GPGPU-Sim PTX: 17100000 instructions simulated : ctaid=(0,11,0) tid=(64,0,0)
GPGPU-Sim PTX: 17200000 instructions simulated : ctaid=(0,42,0) tid=(177,0,0)
GPGPU-Sim PTX: 17300000 instructions simulated : ctaid=(0,27,0) tid=(191,0,0)
GPGPU-Sim PTX: 17400000 instructions simulated : ctaid=(0,43,0) tid=(0,0,0)
GPGPU-Sim uArch: cycles simulated: 21500  inst.: 14554406 (ipc=676.9) sim_rate=404289 (inst/sec) elapsed = 0:0:00:36 / Tue Mar 10 19:49:26 2015
GPGPU-Sim PTX: 17500000 instructions simulated : ctaid=(0,16,0) tid=(147,0,0)
GPGPU-Sim uArch: Shader 5 finished CTA #0 (21698,0), 5 CTAs running
GPGPU-Sim uArch: core:  5, cta: 0 initialized @(21699,0)
GPGPU-Sim PTX: 17600000 instructions simulated : ctaid=(0,35,0) tid=(100,0,0)
GPGPU-Sim PTX: 17700000 instructions simulated : ctaid=(0,44,0) tid=(158,0,0)
GPGPU-Sim PTX: 17800000 instructions simulated : ctaid=(0,23,0) tid=(179,0,0)
GPGPU-Sim uArch: cycles simulated: 22000  inst.: 14916669 (ipc=678.0) sim_rate=403153 (inst/sec) elapsed = 0:0:00:37 / Tue Mar 10 19:49:27 2015
GPGPU-Sim PTX: 17900000 instructions simulated : ctaid=(0,52,0) tid=(80,0,0)
GPGPU-Sim PTX: 18000000 instructions simulated : ctaid=(0,62,0) tid=(46,0,0)
GPGPU-Sim PTX: 18100000 instructions simulated : ctaid=(0,13,0) tid=(40,0,0)
GPGPU-Sim PTX: 18200000 instructions simulated : ctaid=(0,54,0) tid=(195,0,0)
GPGPU-Sim PTX: 18300000 instructions simulated : ctaid=(0,37,0) tid=(165,0,0)
GPGPU-Sim uArch: cycles simulated: 22500  inst.: 15281667 (ipc=679.2) sim_rate=402149 (inst/sec) elapsed = 0:0:00:38 / Tue Mar 10 19:49:28 2015
GPGPU-Sim PTX: 18400000 instructions simulated : ctaid=(0,11,0) tid=(27,0,0)
GPGPU-Sim PTX: 18500000 instructions simulated : ctaid=(0,25,0) tid=(70,0,0)
GPGPU-Sim PTX: 18600000 instructions simulated : ctaid=(0,14,0) tid=(254,0,0)
GPGPU-Sim PTX: 18700000 instructions simulated : ctaid=(0,58,0) tid=(88,0,0)
GPGPU-Sim uArch: cycles simulated: 23000  inst.: 15649914 (ipc=680.4) sim_rate=401279 (inst/sec) elapsed = 0:0:00:39 / Tue Mar 10 19:49:29 2015
GPGPU-Sim PTX: 18800000 instructions simulated : ctaid=(0,42,0) tid=(179,0,0)
GPGPU-Sim PTX: 18900000 instructions simulated : ctaid=(0,11,0) tid=(114,0,0)
GPGPU-Sim PTX: 19000000 instructions simulated : ctaid=(0,25,0) tid=(19,0,0)
GPGPU-Sim PTX: 19100000 instructions simulated : ctaid=(0,20,0) tid=(34,0,0)
GPGPU-Sim uArch: cycles simulated: 23500  inst.: 16014438 (ipc=681.5) sim_rate=400360 (inst/sec) elapsed = 0:0:00:40 / Tue Mar 10 19:49:30 2015
GPGPU-Sim PTX: 19200000 instructions simulated : ctaid=(0,49,0) tid=(72,0,0)
GPGPU-Sim PTX: 19300000 instructions simulated : ctaid=(0,35,0) tid=(33,0,0)
GPGPU-Sim PTX: 19400000 instructions simulated : ctaid=(0,33,0) tid=(112,0,0)
GPGPU-Sim uArch: Shader 6 finished CTA #0 (23850,0), 5 CTAs running
GPGPU-Sim uArch: core:  6, cta: 0 initialized @(23851,0)
GPGPU-Sim PTX: 19500000 instructions simulated : ctaid=(0,18,0) tid=(251,0,0)
GPGPU-Sim PTX: 19600000 instructions simulated : ctaid=(0,53,0) tid=(123,0,0)
GPGPU-Sim uArch: cycles simulated: 24000  inst.: 16377357 (ipc=682.4) sim_rate=399447 (inst/sec) elapsed = 0:0:00:41 / Tue Mar 10 19:49:31 2015
GPGPU-Sim PTX: 19700000 instructions simulated : ctaid=(0,26,0) tid=(83,0,0)
GPGPU-Sim PTX: 19800000 instructions simulated : ctaid=(0,7,0) tid=(213,0,0)
GPGPU-Sim PTX: 19900000 instructions simulated : ctaid=(0,13,0) tid=(193,0,0)
GPGPU-Sim PTX: 20000000 instructions simulated : ctaid=(0,53,0) tid=(179,0,0)
GPGPU-Sim uArch: cycles simulated: 24500  inst.: 16743581 (ipc=683.4) sim_rate=398656 (inst/sec) elapsed = 0:0:00:42 / Tue Mar 10 19:49:32 2015
GPGPU-Sim PTX: 20100000 instructions simulated : ctaid=(0,20,0) tid=(128,0,0)
GPGPU-Sim PTX: 20200000 instructions simulated : ctaid=(0,13,0) tid=(129,0,0)
GPGPU-Sim PTX: 20300000 instructions simulated : ctaid=(0,8,0) tid=(108,0,0)
GPGPU-Sim PTX: 20400000 instructions simulated : ctaid=(0,34,0) tid=(78,0,0)
GPGPU-Sim PTX: 20500000 instructions simulated : ctaid=(0,27,0) tid=(251,0,0)
GPGPU-Sim uArch: cycles simulated: 25000  inst.: 17112750 (ipc=684.5) sim_rate=397970 (inst/sec) elapsed = 0:0:00:43 / Tue Mar 10 19:49:33 2015
GPGPU-Sim PTX: 20600000 instructions simulated : ctaid=(0,77,0) tid=(194,0,0)
GPGPU-Sim PTX: 20700000 instructions simulated : ctaid=(0,26,0) tid=(134,0,0)
GPGPU-Sim uArch: Shader 8 finished CTA #0 (25294,0), 5 CTAs running
GPGPU-Sim uArch: core:  8, cta: 0 initialized @(25295,0)
GPGPU-Sim PTX: 20800000 instructions simulated : ctaid=(0,55,0) tid=(132,0,0)
GPGPU-Sim PTX: 20900000 instructions simulated : ctaid=(0,11,0) tid=(209,0,0)
GPGPU-Sim PTX: 21000000 instructions simulated : ctaid=(0,47,0) tid=(39,0,0)
GPGPU-Sim PTX: 21100000 instructions simulated : ctaid=(0,32,0) tid=(168,0,0)
GPGPU-Sim PTX: 21200000 instructions simulated : ctaid=(0,22,0) tid=(203,0,0)
GPGPU-Sim PTX: 21300000 instructions simulated : ctaid=(0,24,0) tid=(30,0,0)
GPGPU-Sim uArch: cycles simulated: 26000  inst.: 17838716 (ipc=686.1) sim_rate=405425 (inst/sec) elapsed = 0:0:00:44 / Tue Mar 10 19:49:34 2015
GPGPU-Sim PTX: 21400000 instructions simulated : ctaid=(0,9,0) tid=(58,0,0)
GPGPU-Sim uArch: Shader 7 finished CTA #0 (26063,0), 5 CTAs running
GPGPU-Sim uArch: core:  7, cta: 0 initialized @(26064,0)
GPGPU-Sim PTX: 21500000 instructions simulated : ctaid=(0,8,0) tid=(170,0,0)
GPGPU-Sim uArch: Shader 13 finished CTA #0 (26133,0), 5 CTAs running
GPGPU-Sim uArch: core: 13, cta: 0 initialized @(26134,0)
GPGPU-Sim uArch: Shader 14 finished CTA #0 (26241,0), 5 CTAs running
GPGPU-Sim uArch: core: 14, cta: 0 initialized @(26242,0)
GPGPU-Sim PTX: 21600000 instructions simulated : ctaid=(0,32,0) tid=(153,0,0)
GPGPU-Sim PTX: 21700000 instructions simulated : ctaid=(0,30,0) tid=(173,0,0)
GPGPU-Sim PTX: 21800000 instructions simulated : ctaid=(0,14,0) tid=(33,0,0)
GPGPU-Sim uArch: cycles simulated: 26500  inst.: 18204714 (ipc=687.0) sim_rate=404549 (inst/sec) elapsed = 0:0:00:45 / Tue Mar 10 19:49:35 2015
GPGPU-Sim PTX: 21900000 instructions simulated : ctaid=(0,10,0) tid=(220,0,0)
GPGPU-Sim uArch: Shader 10 finished CTA #0 (26682,0), 5 CTAs running
GPGPU-Sim uArch: core: 10, cta: 0 initialized @(26683,0)
GPGPU-Sim PTX: 22000000 instructions simulated : ctaid=(0,45,0) tid=(75,0,0)
GPGPU-Sim PTX: 22100000 instructions simulated : ctaid=(0,27,0) tid=(14,0,0)
GPGPU-Sim PTX: 22200000 instructions simulated : ctaid=(0,80,0) tid=(175,0,0)
GPGPU-Sim uArch: cycles simulated: 27000  inst.: 18565620 (ipc=687.6) sim_rate=403600 (inst/sec) elapsed = 0:0:00:46 / Tue Mar 10 19:49:36 2015
GPGPU-Sim PTX: 22300000 instructions simulated : ctaid=(0,21,0) tid=(90,0,0)
GPGPU-Sim PTX: 22400000 instructions simulated : ctaid=(0,57,0) tid=(165,0,0)
GPGPU-Sim PTX: 22500000 instructions simulated : ctaid=(0,15,0) tid=(18,0,0)
GPGPU-Sim uArch: Shader 9 finished CTA #0 (27355,0), 5 CTAs running
GPGPU-Sim uArch: core:  9, cta: 0 initialized @(27356,0)
GPGPU-Sim uArch: Shader 0 finished CTA #0 (27383,0), 5 CTAs running
GPGPU-Sim uArch: core:  0, cta: 0 initialized @(27384,0)
GPGPU-Sim PTX: 22600000 instructions simulated : ctaid=(0,16,0) tid=(61,0,0)
GPGPU-Sim uArch: Shader 11 finished CTA #0 (27468,0), 5 CTAs running
GPGPU-Sim uArch: core: 11, cta: 0 initialized @(27469,0)
GPGPU-Sim uArch: cycles simulated: 27500  inst.: 18924261 (ipc=688.2) sim_rate=402643 (inst/sec) elapsed = 0:0:00:47 / Tue Mar 10 19:49:37 2015
GPGPU-Sim PTX: 22700000 instructions simulated : ctaid=(0,64,0) tid=(70,0,0)
GPGPU-Sim uArch: Shader 8 finished CTA #1 (27515,0), 5 CTAs running
GPGPU-Sim uArch: core:  8, cta: 1 initialized @(27516,0)
GPGPU-Sim uArch: Shader 12 finished CTA #0 (27567,0), 5 CTAs running
GPGPU-Sim uArch: core: 12, cta: 0 initialized @(27568,0)
GPGPU-Sim PTX: 22800000 instructions simulated : ctaid=(0,29,0) tid=(47,0,0)
GPGPU-Sim uArch: Shader 13 finished CTA #1 (27729,0), 5 CTAs running
GPGPU-Sim uArch: core: 13, cta: 1 initialized @(27730,0)
GPGPU-Sim PTX: 22900000 instructions simulated : ctaid=(0,57,0) tid=(61,0,0)
GPGPU-Sim uArch: Shader 10 finished CTA #1 (27838,0), 5 CTAs running
GPGPU-Sim uArch: core: 10, cta: 1 initialized @(27839,0)
GPGPU-Sim PTX: 23000000 instructions simulated : ctaid=(0,31,0) tid=(69,0,0)
GPGPU-Sim uArch: Shader 14 finished CTA #1 (27881,0), 5 CTAs running
GPGPU-Sim uArch: core: 14, cta: 1 initialized @(27882,0)
GPGPU-Sim PTX: 23100000 instructions simulated : ctaid=(0,23,0) tid=(118,0,0)
GPGPU-Sim uArch: cycles simulated: 28000  inst.: 19283245 (ipc=688.7) sim_rate=401734 (inst/sec) elapsed = 0:0:00:48 / Tue Mar 10 19:49:38 2015
GPGPU-Sim uArch: Shader 4 finished CTA #1 (28081,0), 5 CTAs running
GPGPU-Sim uArch: core:  4, cta: 1 initialized @(28082,0)
GPGPU-Sim PTX: 23200000 instructions simulated : ctaid=(0,49,0) tid=(191,0,0)
GPGPU-Sim uArch: Shader 5 finished CTA #1 (28133,0), 5 CTAs running
GPGPU-Sim uArch: core:  5, cta: 1 initialized @(28134,0)
GPGPU-Sim uArch: Shader 0 finished CTA #1 (28154,0), 5 CTAs running
GPGPU-Sim uArch: core:  0, cta: 1 initialized @(28155,0)
GPGPU-Sim PTX: 23300000 instructions simulated : ctaid=(0,54,0) tid=(197,0,0)
GPGPU-Sim uArch: Shader 7 finished CTA #1 (28266,0), 5 CTAs running
GPGPU-Sim uArch: core:  7, cta: 1 initialized @(28267,0)
GPGPU-Sim uArch: Shader 6 finished CTA #1 (28273,0), 5 CTAs running
GPGPU-Sim uArch: core:  6, cta: 1 initialized @(28274,0)
GPGPU-Sim PTX: 23400000 instructions simulated : ctaid=(0,43,0) tid=(94,0,0)
GPGPU-Sim PTX: 23500000 instructions simulated : ctaid=(0,44,0) tid=(143,0,0)
GPGPU-Sim uArch: cycles simulated: 28500  inst.: 19632374 (ipc=688.9) sim_rate=400660 (inst/sec) elapsed = 0:0:00:49 / Tue Mar 10 19:49:39 2015
GPGPU-Sim uArch: Shader 11 finished CTA #1 (28526,0), 5 CTAs running
GPGPU-Sim uArch: core: 11, cta: 1 initialized @(28527,0)
GPGPU-Sim uArch: Shader 9 finished CTA #1 (28531,0), 5 CTAs running
GPGPU-Sim uArch: core:  9, cta: 1 initialized @(28532,0)
GPGPU-Sim PTX: 23600000 instructions simulated : ctaid=(0,72,0) tid=(235,0,0)
GPGPU-Sim uArch: Shader 12 finished CTA #1 (28663,0), 5 CTAs running
GPGPU-Sim uArch: core: 12, cta: 1 initialized @(28664,0)
GPGPU-Sim PTX: 23700000 instructions simulated : ctaid=(0,44,0) tid=(233,0,0)
GPGPU-Sim PTX: 23800000 instructions simulated : ctaid=(0,35,0) tid=(75,0,0)
GPGPU-Sim PTX: 23900000 instructions simulated : ctaid=(0,36,0) tid=(58,0,0)
GPGPU-Sim uArch: cycles simulated: 29000  inst.: 19990090 (ipc=689.3) sim_rate=399801 (inst/sec) elapsed = 0:0:00:50 / Tue Mar 10 19:49:40 2015
GPGPU-Sim PTX: 24000000 instructions simulated : ctaid=(0,49,0) tid=(219,0,0)
GPGPU-Sim PTX: 24100000 instructions simulated : ctaid=(0,59,0) tid=(50,0,0)
GPGPU-Sim PTX: 24200000 instructions simulated : ctaid=(0,50,0) tid=(81,0,0)
GPGPU-Sim PTX: 24300000 instructions simulated : ctaid=(0,56,0) tid=(66,0,0)
GPGPU-Sim uArch: Shader 1 finished CTA #1 (29400,0), 5 CTAs running
GPGPU-Sim uArch: core:  1, cta: 1 initialized @(29401,0)
GPGPU-Sim PTX: 24400000 instructions simulated : ctaid=(0,79,0) tid=(101,0,0)
GPGPU-Sim uArch: cycles simulated: 29500  inst.: 20361238 (ipc=690.2) sim_rate=399239 (inst/sec) elapsed = 0:0:00:51 / Tue Mar 10 19:49:41 2015
GPGPU-Sim PTX: 24500000 instructions simulated : ctaid=(0,90,0) tid=(7,0,0)
GPGPU-Sim PTX: 24600000 instructions simulated : ctaid=(0,110,0) tid=(137,0,0)
GPGPU-Sim PTX: 24700000 instructions simulated : ctaid=(0,66,0) tid=(31,0,0)
GPGPU-Sim PTX: 24800000 instructions simulated : ctaid=(0,58,0) tid=(78,0,0)
GPGPU-Sim uArch: cycles simulated: 30000  inst.: 20732944 (ipc=691.1) sim_rate=398710 (inst/sec) elapsed = 0:0:00:52 / Tue Mar 10 19:49:42 2015
GPGPU-Sim PTX: 24900000 instructions simulated : ctaid=(0,44,0) tid=(39,0,0)
GPGPU-Sim uArch: Shader 2 finished CTA #1 (30144,0), 5 CTAs running
GPGPU-Sim uArch: core:  2, cta: 1 initialized @(30145,0)
GPGPU-Sim PTX: 25000000 instructions simulated : ctaid=(0,42,0) tid=(224,0,0)
GPGPU-Sim PTX: 25100000 instructions simulated : ctaid=(0,35,0) tid=(163,0,0)
GPGPU-Sim PTX: 25200000 instructions simulated : ctaid=(0,40,0) tid=(78,0,0)
GPGPU-Sim uArch: cycles simulated: 30500  inst.: 21098731 (ipc=691.8) sim_rate=398089 (inst/sec) elapsed = 0:0:00:53 / Tue Mar 10 19:49:43 2015
GPGPU-Sim PTX: 25300000 instructions simulated : ctaid=(0,53,0) tid=(71,0,0)
GPGPU-Sim PTX: 25400000 instructions simulated : ctaid=(0,38,0) tid=(137,0,0)
GPGPU-Sim PTX: 25500000 instructions simulated : ctaid=(0,92,0) tid=(209,0,0)
GPGPU-Sim PTX: 25600000 instructions simulated : ctaid=(0,42,0) tid=(50,0,0)
GPGPU-Sim PTX: 25700000 instructions simulated : ctaid=(0,69,0) tid=(85,0,0)
GPGPU-Sim uArch: cycles simulated: 31000  inst.: 21461890 (ipc=692.3) sim_rate=397442 (inst/sec) elapsed = 0:0:00:54 / Tue Mar 10 19:49:44 2015
GPGPU-Sim PTX: 25800000 instructions simulated : ctaid=(0,48,0) tid=(182,0,0)
GPGPU-Sim PTX: 25900000 instructions simulated : ctaid=(0,42,0) tid=(132,0,0)
GPGPU-Sim PTX: 26000000 instructions simulated : ctaid=(0,62,0) tid=(129,0,0)
GPGPU-Sim PTX: 26100000 instructions simulated : ctaid=(0,54,0) tid=(159,0,0)
GPGPU-Sim uArch: cycles simulated: 31500  inst.: 21828824 (ipc=693.0) sim_rate=396887 (inst/sec) elapsed = 0:0:00:55 / Tue Mar 10 19:49:45 2015
GPGPU-Sim uArch: Shader 9 finished CTA #2 (31525,0), 5 CTAs running
GPGPU-Sim uArch: core:  9, cta: 2 initialized @(31526,0)
GPGPU-Sim PTX: 26200000 instructions simulated : ctaid=(0,34,0) tid=(59,0,0)
GPGPU-Sim uArch: Shader 2 finished CTA #2 (31606,0), 5 CTAs running
GPGPU-Sim uArch: core:  2, cta: 2 initialized @(31607,0)
GPGPU-Sim PTX: 26300000 instructions simulated : ctaid=(0,65,0) tid=(38,0,0)
GPGPU-Sim uArch: Shader 3 finished CTA #1 (31722,0), 5 CTAs running
GPGPU-Sim uArch: core:  3, cta: 1 initialized @(31723,0)
GPGPU-Sim PTX: 26400000 instructions simulated : ctaid=(0,56,0) tid=(80,0,0)
GPGPU-Sim uArch: Shader 4 finished CTA #2 (31766,0), 5 CTAs running
GPGPU-Sim uArch: core:  4, cta: 2 initialized @(31767,0)
GPGPU-Sim uArch: Shader 1 finished CTA #2 (31812,0), 5 CTAs running
GPGPU-Sim uArch: core:  1, cta: 2 initialized @(31813,0)
GPGPU-Sim PTX: 26500000 instructions simulated : ctaid=(0,72,0) tid=(26,0,0)
GPGPU-Sim uArch: Shader 8 finished CTA #2 (31873,0), 5 CTAs running
GPGPU-Sim uArch: core:  8, cta: 2 initialized @(31874,0)
GPGPU-Sim uArch: Shader 7 finished CTA #2 (31932,0), 5 CTAs running
GPGPU-Sim uArch: core:  7, cta: 2 initialized @(31933,0)
GPGPU-Sim PTX: 26600000 instructions simulated : ctaid=(0,55,0) tid=(164,0,0)
GPGPU-Sim uArch: cycles simulated: 32000  inst.: 22193554 (ipc=693.5) sim_rate=396313 (inst/sec) elapsed = 0:0:00:56 / Tue Mar 10 19:49:46 2015
GPGPU-Sim uArch: Shader 6 finished CTA #2 (32014,0), 5 CTAs running
GPGPU-Sim uArch: core:  6, cta: 2 initialized @(32015,0)
GPGPU-Sim uArch: Shader 12 finished CTA #2 (32051,0), 5 CTAs running
GPGPU-Sim uArch: core: 12, cta: 2 initialized @(32052,0)
GPGPU-Sim uArch: Shader 13 finished CTA #2 (32092,0), 5 CTAs running
GPGPU-Sim uArch: core: 13, cta: 2 initialized @(32093,0)
GPGPU-Sim PTX: 26700000 instructions simulated : ctaid=(0,128,0) tid=(27,0,0)
GPGPU-Sim PTX: 26800000 instructions simulated : ctaid=(0,58,0) tid=(133,0,0)
GPGPU-Sim uArch: Shader 0 finished CTA #2 (32228,0), 5 CTAs running
GPGPU-Sim uArch: core:  0, cta: 2 initialized @(32229,0)
GPGPU-Sim PTX: 26900000 instructions simulated : ctaid=(0,79,0) tid=(217,0,0)
GPGPU-Sim PTX: 27000000 instructions simulated : ctaid=(0,65,0) tid=(237,0,0)
GPGPU-Sim uArch: cycles simulated: 32500  inst.: 22562768 (ipc=694.2) sim_rate=395838 (inst/sec) elapsed = 0:0:00:57 / Tue Mar 10 19:49:47 2015
GPGPU-Sim uArch: Shader 10 finished CTA #2 (32539,0), 5 CTAs running
GPGPU-Sim uArch: core: 10, cta: 2 initialized @(32540,0)
GPGPU-Sim PTX: 27100000 instructions simulated : ctaid=(0,84,0) tid=(153,0,0)
GPGPU-Sim uArch: Shader 14 finished CTA #2 (32579,0), 5 CTAs running
GPGPU-Sim uArch: core: 14, cta: 2 initialized @(32580,0)
GPGPU-Sim uArch: Shader 11 finished CTA #2 (32669,0), 5 CTAs running
GPGPU-Sim uArch: core: 11, cta: 2 initialized @(32670,0)
GPGPU-Sim PTX: 27200000 instructions simulated : ctaid=(0,49,0) tid=(236,0,0)
GPGPU-Sim PTX: 27300000 instructions simulated : ctaid=(0,60,0) tid=(199,0,0)
GPGPU-Sim PTX: 27400000 instructions simulated : ctaid=(0,98,0) tid=(155,0,0)
GPGPU-Sim uArch: cycles simulated: 33000  inst.: 22929828 (ipc=694.8) sim_rate=395341 (inst/sec) elapsed = 0:0:00:58 / Tue Mar 10 19:49:48 2015
GPGPU-Sim PTX: 27500000 instructions simulated : ctaid=(0,78,0) tid=(233,0,0)
GPGPU-Sim uArch: Shader 5 finished CTA #2 (33116,0), 5 CTAs running
GPGPU-Sim uArch: core:  5, cta: 2 initialized @(33117,0)
GPGPU-Sim PTX: 27600000 instructions simulated : ctaid=(0,68,0) tid=(172,0,0)
GPGPU-Sim PTX: 27700000 instructions simulated : ctaid=(0,76,0) tid=(73,0,0)
GPGPU-Sim PTX: 27800000 instructions simulated : ctaid=(0,59,0) tid=(50,0,0)
GPGPU-Sim PTX: 27900000 instructions simulated : ctaid=(0,95,0) tid=(81,0,0)
GPGPU-Sim uArch: cycles simulated: 33500  inst.: 23302269 (ipc=695.6) sim_rate=394953 (inst/sec) elapsed = 0:0:00:59 / Tue Mar 10 19:49:49 2015
GPGPU-Sim PTX: 28000000 instructions simulated : ctaid=(0,63,0) tid=(152,0,0)
GPGPU-Sim PTX: 28100000 instructions simulated : ctaid=(0,91,0) tid=(230,0,0)
GPGPU-Sim PTX: 28200000 instructions simulated : ctaid=(0,49,0) tid=(186,0,0)
GPGPU-Sim uArch: Shader 3 finished CTA #2 (33835,0), 5 CTAs running
GPGPU-Sim uArch: core:  3, cta: 2 initialized @(33836,0)
GPGPU-Sim PTX: 28300000 instructions simulated : ctaid=(0,53,0) tid=(35,0,0)
GPGPU-Sim PTX: 28400000 instructions simulated : ctaid=(0,99,0) tid=(82,0,0)
GPGPU-Sim PTX: 28500000 instructions simulated : ctaid=(0,101,0) tid=(48,0,0)
GPGPU-Sim PTX: 28600000 instructions simulated : ctaid=(0,60,0) tid=(120,0,0)
GPGPU-Sim PTX: 28700000 instructions simulated : ctaid=(0,123,0) tid=(199,0,0)
GPGPU-Sim PTX: 28800000 instructions simulated : ctaid=(0,75,0) tid=(68,0,0)
GPGPU-Sim uArch: cycles simulated: 34500  inst.: 24039263 (ipc=696.8) sim_rate=400654 (inst/sec) elapsed = 0:0:01:00 / Tue Mar 10 19:49:50 2015
GPGPU-Sim PTX: 28900000 instructions simulated : ctaid=(0,78,0) tid=(48,0,0)
GPGPU-Sim PTX: 29000000 instructions simulated : ctaid=(0,130,0) tid=(86,0,0)
GPGPU-Sim PTX: 29100000 instructions simulated : ctaid=(0,61,0) tid=(7,0,0)
GPGPU-Sim PTX: 29200000 instructions simulated : ctaid=(0,63,0) tid=(209,0,0)
GPGPU-Sim uArch: cycles simulated: 35000  inst.: 24403567 (ipc=697.2) sim_rate=400058 (inst/sec) elapsed = 0:0:01:01 / Tue Mar 10 19:49:51 2015
GPGPU-Sim PTX: 29300000 instructions simulated : ctaid=(0,79,0) tid=(11,0,0)
GPGPU-Sim PTX: 29400000 instructions simulated : ctaid=(0,102,0) tid=(204,0,0)
GPGPU-Sim PTX: 29500000 instructions simulated : ctaid=(0,73,0) tid=(88,0,0)
GPGPU-Sim PTX: 29600000 instructions simulated : ctaid=(0,107,0) tid=(162,0,0)
GPGPU-Sim PTX: 29700000 instructions simulated : ctaid=(0,83,0) tid=(32,0,0)
GPGPU-Sim uArch: cycles simulated: 35500  inst.: 24768789 (ipc=697.7) sim_rate=399496 (inst/sec) elapsed = 0:0:01:02 / Tue Mar 10 19:49:52 2015
GPGPU-Sim PTX: 29800000 instructions simulated : ctaid=(0,117,0) tid=(49,0,0)
GPGPU-Sim PTX: 29900000 instructions simulated : ctaid=(0,80,0) tid=(226,0,0)
GPGPU-Sim PTX: 30000000 instructions simulated : ctaid=(0,95,0) tid=(83,0,0)
GPGPU-Sim PTX: 30100000 instructions simulated : ctaid=(0,73,0) tid=(33,0,0)
GPGPU-Sim uArch: cycles simulated: 36000  inst.: 25135134 (ipc=698.2) sim_rate=398970 (inst/sec) elapsed = 0:0:01:03 / Tue Mar 10 19:49:53 2015
GPGPU-Sim PTX: 30200000 instructions simulated : ctaid=(0,59,0) tid=(19,0,0)
GPGPU-Sim PTX: 30300000 instructions simulated : ctaid=(0,102,0) tid=(53,0,0)
GPGPU-Sim PTX: 30400000 instructions simulated : ctaid=(0,74,0) tid=(151,0,0)
GPGPU-Sim PTX: 30500000 instructions simulated : ctaid=(0,47,0) tid=(7,0,0)
GPGPU-Sim uArch: Shader 1 finished CTA #3 (36416,0), 5 CTAs running
GPGPU-Sim uArch: core:  1, cta: 3 initialized @(36417,0)
GPGPU-Sim uArch: cycles simulated: 36500  inst.: 25504964 (ipc=698.8) sim_rate=392384 (inst/sec) elapsed = 0:0:01:05 / Tue Mar 10 19:49:55 2015
GPGPU-Sim PTX: 30600000 instructions simulated : ctaid=(0,115,0) tid=(159,0,0)
GPGPU-Sim PTX: 30700000 instructions simulated : ctaid=(0,67,0) tid=(95,0,0)
GPGPU-Sim PTX: 30800000 instructions simulated : ctaid=(0,59,0) tid=(78,0,0)
GPGPU-Sim PTX: 30900000 instructions simulated : ctaid=(0,72,0) tid=(221,0,0)
GPGPU-Sim uArch: Shader 2 finished CTA #3 (36865,0), 5 CTAs running
GPGPU-Sim uArch: core:  2, cta: 3 initialized @(36866,0)
GPGPU-Sim PTX: 31000000 instructions simulated : ctaid=(0,81,0) tid=(35,0,0)
GPGPU-Sim PTX: 31100000 instructions simulated : ctaid=(0,63,0) tid=(23,0,0)
GPGPU-Sim PTX: 31200000 instructions simulated : ctaid=(0,63,0) tid=(116,0,0)
GPGPU-Sim uArch: Shader 4 finished CTA #3 (37207,0), 5 CTAs running
GPGPU-Sim uArch: core:  4, cta: 3 initialized @(37208,0)
GPGPU-Sim PTX: 31300000 instructions simulated : ctaid=(0,87,0) tid=(194,0,0)
GPGPU-Sim PTX: 31400000 instructions simulated : ctaid=(0,58,0) tid=(149,0,0)
GPGPU-Sim uArch: Shader 3 finished CTA #3 (37441,0), 5 CTAs running
GPGPU-Sim uArch: core:  3, cta: 3 initialized @(37442,0)
GPGPU-Sim uArch: cycles simulated: 37500  inst.: 26241027 (ipc=699.8) sim_rate=397591 (inst/sec) elapsed = 0:0:01:06 / Tue Mar 10 19:49:56 2015
GPGPU-Sim PTX: 31500000 instructions simulated : ctaid=(0,101,0) tid=(77,0,0)
GPGPU-Sim PTX: 31600000 instructions simulated : ctaid=(0,113,0) tid=(89,0,0)
GPGPU-Sim PTX: 31700000 instructions simulated : ctaid=(0,84,0) tid=(164,0,0)
GPGPU-Sim PTX: 31800000 instructions simulated : ctaid=(0,76,0) tid=(195,0,0)
GPGPU-Sim PTX: 31900000 instructions simulated : ctaid=(0,72,0) tid=(21,0,0)
GPGPU-Sim uArch: cycles simulated: 38000  inst.: 26610134 (ipc=700.3) sim_rate=391325 (inst/sec) elapsed = 0:0:01:08 / Tue Mar 10 19:49:58 2015
GPGPU-Sim PTX: 32000000 instructions simulated : ctaid=(0,55,0) tid=(167,0,0)
GPGPU-Sim PTX: 32100000 instructions simulated : ctaid=(0,87,0) tid=(195,0,0)
GPGPU-Sim PTX: 32200000 instructions simulated : ctaid=(0,73,0) tid=(55,0,0)
GPGPU-Sim PTX: 32300000 instructions simulated : ctaid=(0,81,0) tid=(189,0,0)
GPGPU-Sim PTX: 32400000 instructions simulated : ctaid=(0,64,0) tid=(17,0,0)
GPGPU-Sim PTX: 32500000 instructions simulated : ctaid=(0,66,0) tid=(63,0,0)
GPGPU-Sim PTX: 32600000 instructions simulated : ctaid=(0,90,0) tid=(171,0,0)
GPGPU-Sim uArch: Shader 5 finished CTA #3 (38856,0), 5 CTAs running
GPGPU-Sim uArch: core:  5, cta: 3 initialized @(38857,0)
GPGPU-Sim PTX: 32700000 instructions simulated : ctaid=(0,75,0) tid=(201,0,0)
GPGPU-Sim PTX: 32800000 instructions simulated : ctaid=(0,89,0) tid=(108,0,0)
GPGPU-Sim uArch: cycles simulated: 39000  inst.: 27343318 (ipc=701.1) sim_rate=396279 (inst/sec) elapsed = 0:0:01:09 / Tue Mar 10 19:49:59 2015
GPGPU-Sim PTX: 32900000 instructions simulated : ctaid=(0,97,0) tid=(42,0,0)
GPGPU-Sim PTX: 33000000 instructions simulated : ctaid=(0,80,0) tid=(65,0,0)
GPGPU-Sim PTX: 33100000 instructions simulated : ctaid=(0,105,0) tid=(225,0,0)
GPGPU-Sim PTX: 33200000 instructions simulated : ctaid=(0,66,0) tid=(94,0,0)
GPGPU-Sim uArch: cycles simulated: 39500  inst.: 27704561 (ipc=701.4) sim_rate=395779 (inst/sec) elapsed = 0:0:01:10 / Tue Mar 10 19:50:00 2015
GPGPU-Sim uArch: Shader 7 finished CTA #3 (39500,0), 5 CTAs running
GPGPU-Sim uArch: core:  7, cta: 3 initialized @(39501,0)
GPGPU-Sim PTX: 33300000 instructions simulated : ctaid=(0,53,0) tid=(235,0,0)
GPGPU-Sim uArch: Shader 13 finished CTA #3 (39579,0), 5 CTAs running
GPGPU-Sim uArch: core: 13, cta: 3 initialized @(39580,0)
GPGPU-Sim PTX: 33400000 instructions simulated : ctaid=(0,56,0) tid=(250,0,0)
GPGPU-Sim uArch: Shader 14 finished CTA #3 (39750,0), 5 CTAs running
GPGPU-Sim uArch: core: 14, cta: 3 initialized @(39751,0)
GPGPU-Sim PTX: 33500000 instructions simulated : ctaid=(0,100,0) tid=(48,0,0)
GPGPU-Sim PTX: 33600000 instructions simulated : ctaid=(0,106,0) tid=(122,0,0)
GPGPU-Sim uArch: cycles simulated: 40000  inst.: 28068426 (ipc=701.7) sim_rate=395329 (inst/sec) elapsed = 0:0:01:11 / Tue Mar 10 19:50:01 2015
GPGPU-Sim PTX: 33700000 instructions simulated : ctaid=(0,66,0) tid=(77,0,0)
GPGPU-Sim PTX: 33800000 instructions simulated : ctaid=(0,67,0) tid=(184,0,0)
GPGPU-Sim uArch: Shader 12 finished CTA #3 (40141,0), 5 CTAs running
GPGPU-Sim uArch: core: 12, cta: 3 initialized @(40142,0)
GPGPU-Sim PTX: 33900000 instructions simulated : ctaid=(0,67,0) tid=(57,0,0)
GPGPU-Sim PTX: 34000000 instructions simulated : ctaid=(0,67,0) tid=(232,0,0)
GPGPU-Sim PTX: 34100000 instructions simulated : ctaid=(0,72,0) tid=(150,0,0)
GPGPU-Sim uArch: cycles simulated: 40500  inst.: 28436112 (ipc=702.1) sim_rate=394946 (inst/sec) elapsed = 0:0:01:12 / Tue Mar 10 19:50:02 2015
GPGPU-Sim PTX: 34200000 instructions simulated : ctaid=(0,84,0) tid=(89,0,0)
GPGPU-Sim PTX: 34300000 instructions simulated : ctaid=(0,93,0) tid=(107,0,0)
GPGPU-Sim uArch: Shader 6 finished CTA #3 (40761,0), 5 CTAs running
GPGPU-Sim uArch: core:  6, cta: 3 initialized @(40762,0)
GPGPU-Sim PTX: 34400000 instructions simulated : ctaid=(0,98,0) tid=(214,0,0)
GPGPU-Sim PTX: 34500000 instructions simulated : ctaid=(0,87,0) tid=(220,0,0)
GPGPU-Sim uArch: cycles simulated: 41000  inst.: 28799583 (ipc=702.4) sim_rate=394514 (inst/sec) elapsed = 0:0:01:13 / Tue Mar 10 19:50:03 2015
GPGPU-Sim PTX: 34600000 instructions simulated : ctaid=(0,72,0) tid=(234,0,0)
GPGPU-Sim PTX: 34700000 instructions simulated : ctaid=(0,62,0) tid=(64,0,0)
GPGPU-Sim uArch: Shader 0 finished CTA #3 (41167,0), 5 CTAs running
GPGPU-Sim uArch: core:  0, cta: 3 initialized @(41168,0)
GPGPU-Sim uArch: Shader 11 finished CTA #3 (41239,0), 5 CTAs running
GPGPU-Sim uArch: core: 11, cta: 3 initialized @(41240,0)
GPGPU-Sim uArch: Shader 9 finished CTA #3 (41266,0), 5 CTAs running
GPGPU-Sim uArch: core:  9, cta: 3 initialized @(41267,0)
GPGPU-Sim PTX: 34800000 instructions simulated : ctaid=(0,97,0) tid=(67,0,0)
GPGPU-Sim uArch: Shader 8 finished CTA #3 (41379,0), 5 CTAs running
GPGPU-Sim uArch: core:  8, cta: 3 initialized @(41380,0)
GPGPU-Sim PTX: 34900000 instructions simulated : ctaid=(0,98,0) tid=(241,0,0)
GPGPU-Sim uArch: cycles simulated: 41500  inst.: 29164441 (ipc=702.8) sim_rate=394114 (inst/sec) elapsed = 0:0:01:14 / Tue Mar 10 19:50:04 2015
GPGPU-Sim PTX: 35000000 instructions simulated : ctaid=(0,63,0) tid=(31,0,0)
GPGPU-Sim PTX: 35100000 instructions simulated : ctaid=(0,79,0) tid=(126,0,0)
GPGPU-Sim PTX: 35200000 instructions simulated : ctaid=(0,86,0) tid=(109,0,0)
GPGPU-Sim PTX: 35300000 instructions simulated : ctaid=(0,65,0) tid=(199,0,0)
GPGPU-Sim uArch: Shader 10 finished CTA #3 (41857,0), 5 CTAs running
GPGPU-Sim uArch: core: 10, cta: 3 initialized @(41858,0)
GPGPU-Sim PTX: 35400000 instructions simulated : ctaid=(0,66,0) tid=(64,0,0)
GPGPU-Sim PTX: 35500000 instructions simulated : ctaid=(0,64,0) tid=(18,0,0)
GPGPU-Sim PTX: 35600000 instructions simulated : ctaid=(0,71,0) tid=(54,0,0)
GPGPU-Sim uArch: Shader 1 finished CTA #4 (42200,0), 5 CTAs running
GPGPU-Sim uArch: core:  1, cta: 4 initialized @(42201,0)
GPGPU-Sim PTX: 35700000 instructions simulated : ctaid=(0,84,0) tid=(209,0,0)
GPGPU-Sim PTX: 35800000 instructions simulated : ctaid=(0,82,0) tid=(223,0,0)
GPGPU-Sim uArch: cycles simulated: 42500  inst.: 29888289 (ipc=703.3) sim_rate=398510 (inst/sec) elapsed = 0:0:01:15 / Tue Mar 10 19:50:05 2015
GPGPU-Sim PTX: 35900000 instructions simulated : ctaid=(0,98,0) tid=(170,0,0)
GPGPU-Sim PTX: 36000000 instructions simulated : ctaid=(0,79,0) tid=(51,0,0)
GPGPU-Sim uArch: Shader 3 finished CTA #4 (42719,0), 5 CTAs running
GPGPU-Sim uArch: core:  3, cta: 4 initialized @(42720,0)
GPGPU-Sim PTX: 36100000 instructions simulated : ctaid=(0,70,0) tid=(74,0,0)
GPGPU-Sim uArch: Shader 2 finished CTA #4 (42886,0), 5 CTAs running
GPGPU-Sim PTX: 36200000 instructions simulated : ctaid=(0,69,0) tid=(31,0,0)
GPGPU-Sim uArch: core:  2, cta: 4 initialized @(42887,0)
GPGPU-Sim PTX: 36300000 instructions simulated : ctaid=(0,70,0) tid=(74,0,0)
GPGPU-Sim uArch: cycles simulated: 43000  inst.: 30246539 (ipc=703.4) sim_rate=397980 (inst/sec) elapsed = 0:0:01:16 / Tue Mar 10 19:50:06 2015
GPGPU-Sim PTX: 36400000 instructions simulated : ctaid=(0,74,0) tid=(220,0,0)
GPGPU-Sim PTX: 36500000 instructions simulated : ctaid=(0,86,0) tid=(30,0,0)
GPGPU-Sim PTX: 36600000 instructions simulated : ctaid=(0,101,0) tid=(195,0,0)
GPGPU-Sim PTX: 36700000 instructions simulated : ctaid=(0,73,0) tid=(144,0,0)
GPGPU-Sim uArch: cycles simulated: 43500  inst.: 30617808 (ipc=703.9) sim_rate=397633 (inst/sec) elapsed = 0:0:01:17 / Tue Mar 10 19:50:07 2015
GPGPU-Sim PTX: 36800000 instructions simulated : ctaid=(0,80,0) tid=(131,0,0)
GPGPU-Sim uArch: Shader 4 finished CTA #4 (43655,0), 5 CTAs running
GPGPU-Sim uArch: core:  4, cta: 4 initialized @(43656,0)
GPGPU-Sim PTX: 36900000 instructions simulated : ctaid=(0,118,0) tid=(170,0,0)
GPGPU-Sim PTX: 37000000 instructions simulated : ctaid=(0,73,0) tid=(206,0,0)
GPGPU-Sim PTX: 37100000 instructions simulated : ctaid=(0,119,0) tid=(248,0,0)
GPGPU-Sim uArch: cycles simulated: 44000  inst.: 30988633 (ipc=704.3) sim_rate=397290 (inst/sec) elapsed = 0:0:01:18 / Tue Mar 10 19:50:08 2015
GPGPU-Sim PTX: 37200000 instructions simulated : ctaid=(0,96,0) tid=(139,0,0)
GPGPU-Sim PTX: 37300000 instructions simulated : ctaid=(0,71,0) tid=(44,0,0)
GPGPU-Sim PTX: 37400000 instructions simulated : ctaid=(0,87,0) tid=(23,0,0)
GPGPU-Sim PTX: 37500000 instructions simulated : ctaid=(0,101,0) tid=(179,0,0)
GPGPU-Sim PTX: 37600000 instructions simulated : ctaid=(0,126,0) tid=(72,0,0)
GPGPU-Sim PTX: 37700000 instructions simulated : ctaid=(0,75,0) tid=(136,0,0)
GPGPU-Sim PTX: 37800000 instructions simulated : ctaid=(0,70,0) tid=(176,0,0)
GPGPU-Sim PTX: 37900000 instructions simulated : ctaid=(0,86,0) tid=(139,0,0)
GPGPU-Sim PTX: 38000000 instructions simulated : ctaid=(0,117,0) tid=(41,0,0)
GPGPU-Sim uArch: cycles simulated: 45000  inst.: 31725100 (ipc=705.0) sim_rate=401583 (inst/sec) elapsed = 0:0:01:19 / Tue Mar 10 19:50:09 2015
GPGPU-Sim PTX: 38100000 instructions simulated : ctaid=(0,131,0) tid=(255,0,0)
GPGPU-Sim uArch: Shader 5 finished CTA #4 (45073,0), 5 CTAs running
GPGPU-Sim uArch: core:  5, cta: 4 initialized @(45074,0)
GPGPU-Sim PTX: 38200000 instructions simulated : ctaid=(0,104,0) tid=(252,0,0)
GPGPU-Sim PTX: 38300000 instructions simulated : ctaid=(0,72,0) tid=(164,0,0)
GPGPU-Sim PTX: 38400000 instructions simulated : ctaid=(0,94,0) tid=(223,0,0)
GPGPU-Sim PTX: 38500000 instructions simulated : ctaid=(0,123,0) tid=(133,0,0)
GPGPU-Sim uArch: cycles simulated: 45500  inst.: 32093123 (ipc=705.3) sim_rate=401164 (inst/sec) elapsed = 0:0:01:20 / Tue Mar 10 19:50:10 2015
GPGPU-Sim PTX: 38600000 instructions simulated : ctaid=(0,139,0) tid=(241,0,0)
GPGPU-Sim PTX: 38700000 instructions simulated : ctaid=(0,106,0) tid=(239,0,0)
GPGPU-Sim PTX: 38800000 instructions simulated : ctaid=(0,84,0) tid=(240,0,0)
GPGPU-Sim PTX: 38900000 instructions simulated : ctaid=(0,77,0) tid=(124,0,0)
GPGPU-Sim uArch: cycles simulated: 46000  inst.: 32459482 (ipc=705.6) sim_rate=400734 (inst/sec) elapsed = 0:0:01:21 / Tue Mar 10 19:50:11 2015
GPGPU-Sim PTX: 39000000 instructions simulated : ctaid=(0,99,0) tid=(144,0,0)
GPGPU-Sim PTX: 39100000 instructions simulated : ctaid=(0,92,0) tid=(229,0,0)
GPGPU-Sim PTX: 39200000 instructions simulated : ctaid=(0,72,0) tid=(211,0,0)
GPGPU-Sim PTX: 39300000 instructions simulated : ctaid=(0,104,0) tid=(155,0,0)
GPGPU-Sim PTX: 39400000 instructions simulated : ctaid=(0,95,0) tid=(90,0,0)
GPGPU-Sim uArch: cycles simulated: 46500  inst.: 32823583 (ipc=705.9) sim_rate=400287 (inst/sec) elapsed = 0:0:01:22 / Tue Mar 10 19:50:12 2015
GPGPU-Sim PTX: 39500000 instructions simulated : ctaid=(0,72,0) tid=(114,0,0)
GPGPU-Sim PTX: 39600000 instructions simulated : ctaid=(0,89,0) tid=(66,0,0)
GPGPU-Sim uArch: Shader 14 finished CTA #4 (46836,0), 5 CTAs running
GPGPU-Sim uArch: core: 14, cta: 4 initialized @(46837,0)
GPGPU-Sim PTX: 39700000 instructions simulated : ctaid=(0,105,0) tid=(118,0,0)
GPGPU-Sim PTX: 39800000 instructions simulated : ctaid=(0,89,0) tid=(147,0,0)
GPGPU-Sim uArch: cycles simulated: 47000  inst.: 33186830 (ipc=706.1) sim_rate=399841 (inst/sec) elapsed = 0:0:01:23 / Tue Mar 10 19:50:13 2015
GPGPU-Sim PTX: 39900000 instructions simulated : ctaid=(0,110,0) tid=(129,0,0)
GPGPU-Sim PTX: 40000000 instructions simulated : ctaid=(0,151,0) tid=(34,0,0)
GPGPU-Sim uArch: Shader 7 finished CTA #4 (47209,0), 5 CTAs running
GPGPU-Sim uArch: core:  7, cta: 4 initialized @(47210,0)
GPGPU-Sim PTX: 40100000 instructions simulated : ctaid=(0,76,0) tid=(145,0,0)
GPGPU-Sim PTX: 40200000 instructions simulated : ctaid=(0,92,0) tid=(193,0,0)
GPGPU-Sim uArch: cycles simulated: 47500  inst.: 33552895 (ipc=706.4) sim_rate=399439 (inst/sec) elapsed = 0:0:01:24 / Tue Mar 10 19:50:14 2015
GPGPU-Sim PTX: 40300000 instructions simulated : ctaid=(0,76,0) tid=(115,0,0)
GPGPU-Sim PTX: 40400000 instructions simulated : ctaid=(0,130,0) tid=(246,0,0)
GPGPU-Sim PTX: 40500000 instructions simulated : ctaid=(0,67,0) tid=(206,0,0)
GPGPU-Sim uArch: Shader 6 finished CTA #4 (47823,0), 5 CTAs running
GPGPU-Sim uArch: core:  6, cta: 4 initialized @(47824,0)
GPGPU-Sim PTX: 40600000 instructions simulated : ctaid=(0,103,0) tid=(194,0,0)
GPGPU-Sim PTX: 40700000 instructions simulated : ctaid=(0,89,0) tid=(37,0,0)
GPGPU-Sim uArch: cycles simulated: 48000  inst.: 33920271 (ipc=706.7) sim_rate=399062 (inst/sec) elapsed = 0:0:01:25 / Tue Mar 10 19:50:15 2015
GPGPU-Sim PTX: 40800000 instructions simulated : ctaid=(0,100,0) tid=(201,0,0)
GPGPU-Sim PTX: 40900000 instructions simulated : ctaid=(0,69,0) tid=(126,0,0)
GPGPU-Sim PTX: 41000000 instructions simulated : ctaid=(0,89,0) tid=(153,0,0)
GPGPU-Sim uArch: Shader 11 finished CTA #4 (48329,0), 5 CTAs running
GPGPU-Sim uArch: core: 11, cta: 4 initialized @(48330,0)
[...]
gpgpu_stall_shd_mem[l_mem_ld][wb_rsrv_fail] = 0
gpu_reg_bank_conflict_stalls = 0
Warp Occupancy Distribution:
Stall:162811	W0_Idle:36879	W0_Scoreboard:260324	W1:0	W2:0	W3:0	W4:0	W5:0	W6:0	W7:0	W8:0	W9:0	W10:0	W11:0	W12:0	W13:0	W14:0	W15:0	W16:0	W17:0	W18:0	W19:0	W20:0	W21:0	W22:0	W23:0	W24:0	W25:24240	W26:24240	W27:24240	W28:24240	W29:24240	W30:24240	W31:24240	W32:3209552
traffic_breakdown_coretomem[CONST_ACC_R] = 120 {8:15,}
traffic_breakdown_coretomem[GLOBAL_ACC_R] = 129584 {8:16198,}
traffic_breakdown_coretomem[GLOBAL_ACC_W] = 278528 {136:2048,}
traffic_breakdown_coretomem[INST_ACC_R] = 720 {8:90,}
traffic_breakdown_memtocore[CONST_ACC_R] = 1080 {72:15,}
traffic_breakdown_memtocore[GLOBAL_ACC_R] = 2202928 {136:16198,}
traffic_breakdown_memtocore[GLOBAL_ACC_W] = 16384 {8:2048,}
traffic_breakdown_memtocore[INST_ACC_R] = 12240 {136:90,}
maxmrqlatency = 214 
maxdqlatency = 0 
maxmflatency = 643 
averagemflatency = 182 
max_icnt2mem_latency = 195 
max_icnt2sh_latency = 131331 
mrq_lat_table:3042 	1330 	332 	671 	518 	109 	64 	87 	0 	0 	0 	0 	0 	0 	0 	0 	0 	0 	0 	0 	0 	0 	0 	0 	0 	0 	0 	0 	0 	0 	0 	0 	
dq_lat_table:0 	0 	0 	0 	0 	0 	0 	0 	0 	0 	0 	0 	0 	0 	0 	0 	0 	0 	0 	0 	0 	0 	0 	0 	0 	0 	0 	0 	0 	0 	0 	0 	
mf_lat_table:0 	0 	0 	0 	0 	0 	0 	14432 	3749 	80 	0 	0 	0 	0 	0 	0 	0 	0 	0 	0 	0 	0 	0 	0 	0 	0 	0 	0 	0 	0 	0 	0 	
icnt2mem_lat_table:0 	0 	0 	16290 	1580 	471 	7 	3 	0 	0 	0 	0 	0 	0 	0 	0 	0 	0 	0 	0 	0 	0 	0 	0 	
icnt2sh_lat_table:0 	0 	0 	7884 	5969 	2330 	30 	0 	0 	0 	0 	0 	0 	8 	336 	504 	1192 	8 	0 	0 	0 	0 	0 	0 	
mf_lat_pw_table:0 	0 	0 	0 	0 	0 	0 	246 	7 	0 	0 	0 	0 	0 	0 	0 	0 	0 	0 	0 	0 	0 	0 	0 	0 	0 	0 	0 	0 	0 	0 	0 	
maximum concurrent accesses to same row:
dram[0]:         2         0         0         0        10        10        32        32        32        32        32        32         0         0         0         0 
dram[1]:         2         0         0         0        10        10        32        32        32        32        32        32         0         0         0         0 
dram[2]:         2         0         0         0        10        12        32        32        32        32        32        32         0         0         0         0 
dram[3]:         0         0         0         0        10        12        32        32        32        32        32        32         0         0         0         0 
dram[4]:         0         0         0         0        10        12        32        32        32        32        32        32         0         0         0         0 
dram[5]:         0         0         0         0        10        12        32        32        32        32        32        32         0         0         0         0 
maximum service time to same row:
dram[0]:     17734     17494     37375     38797     58952     58705     82248     81931    101991    101962     91186     95141     55209     51768     77101     77828 
dram[1]:     13559     17506     37125     38810     60169     58708     79271     81934    101843    101874     91176     94175     55559     52297     77407     77901 
dram[2]:     12558     17518     37138     38804     60172     58719     79274     81947    101772    102021     90501     92949     55831     56285     77660     78391 
dram[3]:     15452     18985     37156     40068     60174     59656     79272     82249    101772    101850     90413     92279     56209     56363     77813     78619 
dram[4]:     15457     18997     37144     40085     60207     59659     79314     82253    101895    101749     92686     92160     51381     56810     77216     79210 
dram[5]:     17488     19003     38791     40091     58694     59661     81933     82261    102053    101745     95250     92116     51612     56999     77613     79346 
average row accesses per activate:
dram[0]: 13.000000 64.000000 64.000000 64.000000 37.000000 37.000000 48.000000 48.000000 48.000000 48.000000 28.000000 26.000000 32.000000 32.000000 32.000000 32.000000 
dram[1]: 33.000000 64.000000 64.000000 64.000000 37.000000 37.000000 48.000000 48.000000 48.000000 48.000000 28.000000 26.000000 32.000000 32.000000 32.000000 32.000000 
dram[2]: 33.000000 64.000000 64.000000 64.000000 37.000000 38.000000 48.000000 48.000000 48.000000 48.000000 28.000000 26.000000 32.000000 32.000000 32.000000 32.000000 
dram[3]: 64.000000 64.000000 64.000000 64.000000 37.000000 38.000000 48.000000 48.000000 48.000000 48.000000 28.000000 26.000000 32.000000 32.000000 32.000000 32.000000 
dram[4]: 64.000000 64.000000 64.000000 64.000000 37.000000 38.000000 48.000000 48.000000 48.000000 48.000000 28.000000 26.000000 32.000000 32.000000 32.000000 32.000000 
dram[5]: 64.000000 64.000000 64.000000 64.000000 37.000000 38.000000 48.000000 48.000000 48.000000 48.000000 26.000000 26.000000 32.000000 32.000000 32.000000 32.000000 
average row locality = 6153/150 = 41.020000
number of total memory accesses made:
dram[0]:         0         0         0         0         0         0         0         0         0         0         0         0         0         0         0         0 
dram[1]:         0         0         0         0         0         0         0         0         0         0         0         0         0         0         0         0 
dram[2]:         0         0         0         0         0         0         0         0         0         0         0         0         0         0         0         0 
dram[3]:         0         0         0         0         0         0         0         0         0         0         0         0         0         0         0         0 
dram[4]:         0         0         0         0         0         0         0         0         0         0         0         0         0         0         0         0 
dram[5]:         0         0         0         0         0         0         0         0         0         0         0         0         0         0         0         0 
total accesses: 0
min_bank_accesses = 0!
min_chip_accesses = 0!
number of total read accesses:
dram[0]:        35        32        32        32        42        42        64        64        64        64        44        42        32        32        32        32 
dram[1]:        34        32        32        32        42        42        64        64        64        64        44        42        32        32        32        32 
dram[2]:        34        32        32        32        42        44        64        64        64        64        44        42        32        32        32        32 
dram[3]:        32        32        32        32        42        44        64        64        64        64        44        42        32        32        32        32 
dram[4]:        32        32        32        32        42        44        64        64        64        64        44        42        32        32        32        32 
dram[5]:        32        32        32        32        42        44        64        64        64        64        42        42        32        32        32        32 
total reads: 4105
bank skew: 64/32 = 2.00
chip skew: 686/682 = 1.01
number of total write accesses:
dram[0]:        30        32        32        32        32        32        32        32        32        32        12        10         0         0         0         0 
dram[1]:        32        32        32        32        32        32        32        32        32        32        12        10         0         0         0         0 
dram[2]:        32        32        32        32        32        32        32        32        32        32        12        10         0         0         0         0 
dram[3]:        32        32        32        32        32        32        32        32        32        32        12        10         0         0         0         0 
dram[4]:        32        32        32        32        32        32        32        32        32        32        12        10         0         0         0         0 
dram[5]:        32        32        32        32        32        32        32        32        32        32        10        10         0         0         0         0 
total reads: 2048
min_bank_accesses = 0!
chip skew: 342/340 = 1.01
average mf latency per bank:
dram[0]:        457       133       137       132       312       308       582       598       551       549       799       851      1309      1316      1235      1244
dram[1]:        127       135       131       134       319       310       615       575       564       545       805       862      1313      1325      1241      1230
dram[2]:        129       136       133       135       308       340       575       622       552       549       810       846      1321      1299      1253      1186
dram[3]:        136       133       138       130       316       334       586       584       554       533       817       846      1321      1313      1249      1200
dram[4]:        137       135       137       132       309       337       583       601       545       539       796       857      1299      1321      1218      1202
dram[5]:        130       136       130       134       301       345       570       603       540       554       846       860      1307      1332      1227      1197
maximum mf latency per bank:
dram[0]:        391       310       300       280       472       341       520       562       503       395       287       292       272       272       273       285
dram[1]:        290       307       299       286       483       358       608       476       635       372       337       295       288       281       276       282
dram[2]:        295       297       305       290       445       342       461       643       456       455       317       286       282       268       276       281
dram[3]:        289       315       311       277       461       331       475       516       472       358       312       296       285       271       280       294
dram[4]:        311       314       311       291       410       346       519       561       515       400       325       299       280       268       268       293
dram[5]:        289       316       280       293       336       332       464       560       451       443       288       309       294       293       272       288

Number of Memory Banks Accessed per Memory Operation per Warp (from 0):
0	0	0	0	0	0	0	0	0	0	0	0	0	0	0	0	0	0	0	0	0	0	0	0	0	0	0	0	0	0	0	0	0	0	0	0	0	0	0	0	0	0	0	0	0	0	0	0	0	0	0	0	0	0	0	0	0	0	0	0	0	0	0	0	0	0	0	0	0	0	0	0	0	0	0	0	0	0	0	0	0	0	0	0	0	0	0	0	0	0	0	0	0	0	0	0	
Average # of Memory Banks Accessed per Memory Operation per Warp=-nan

position of mrq chosen
0	0	0	0	0	0	0	0	0	0	0	0	0	0	0	0	

average position of mrq chosen = -nan
Memory Partition 0: 
Cache L2_bank_000:
MSHR contents

Cache L2_bank_001:
MSHR contents

In Dram Latency Queue (total = 0): 
DRAM[0]: 16 bks, busW=4 BL=8 CL=12, tRRD=2 tCCD=6, tRCD=12 tRAS=28 tRP=12 tRC=40
n_cmd=173357 n_nop=171267 n_act=28 n_pre=12 n_req=1025 n_rd=1370 n_write=680 bw_util=0.02365
n_activity=13988 dram_eff=0.2931
bk0: 70a 172554i bk1: 64a 172577i bk2: 64a 172611i bk3: 64a 172671i bk4: 84a 172506i bk5: 84a 172532i bk6: 128a 172243i bk7: 128a 172078i bk8: 128a 172444i bk9: 128a 172459i bk10: 88a 172893i bk11: 84a 172948i bk12: 64a 173183i bk13: 64a 173205i bk14: 64a 173185i bk15: 64a 173202i 
dram_util_bins: 0 0 0 0 0 0 0 0 0 0
dram_eff_bins: 0 0 0 0 0 0 0 0 0 0
mrqq: max=16 avg=0.0604764
Memory Partition 1: 
Cache L2_bank_002:
MSHR contents

Cache L2_bank_003:
MSHR contents

In Dram Latency Queue (total = 0): 
DRAM[1]: 16 bks, busW=4 BL=8 CL=12, tRRD=2 tCCD=6, tRCD=12 tRAS=28 tRP=12 tRC=40
n_cmd=173357 n_nop=171271 n_act=25 n_pre=9 n_req=1026 n_rd=1368 n_write=684 bw_util=0.02367
n_activity=14089 dram_eff=0.2913
bk0: 68a 172584i bk1: 64a 172621i bk2: 64a 172645i bk3: 64a 172710i bk4: 84a 172510i bk5: 84a 172588i bk6: 128a 172342i bk7: 128a 172164i bk8: 128a 172443i bk9: 128a 172367i bk10: 88a 172906i bk11: 84a 172942i bk12: 64a 173207i bk13: 64a 173209i bk14: 64a 173197i bk15: 64a 173196i 
dram_util_bins: 0 0 0 0 0 0 0 0 0 0
dram_eff_bins: 0 0 0 0 0 0 0 0 0 0
mrqq: max=16 avg=0.0484088
Memory Partition 2: 
Cache L2_bank_004:
MSHR contents

Cache L2_bank_005:
MSHR contents

In Dram Latency Queue (total = 0): 
DRAM[2]: 16 bks, busW=4 BL=8 CL=12, tRRD=2 tCCD=6, tRCD=12 tRAS=28 tRP=12 tRC=40
n_cmd=173357 n_nop=171267 n_act=25 n_pre=9 n_req=1028 n_rd=1372 n_write=684 bw_util=0.02372
n_activity=14056 dram_eff=0.2925
bk0: 68a 172627i bk1: 64a 172634i bk2: 64a 172669i bk3: 64a 172700i bk4: 84a 172575i bk5: 88a 172526i bk6: 128a 172296i bk7: 128a 172068i bk8: 128a 172452i bk9: 128a 172437i bk10: 88a 172930i bk11: 84a 172915i bk12: 64a 173210i bk13: 64a 173204i bk14: 64a 173201i bk15: 64a 173182i 
dram_util_bins: 0 0 0 0 0 0 0 0 0 0
dram_eff_bins: 0 0 0 0 0 0 0 0 0 0
mrqq: max=16 avg=0.0615147
Memory Partition 3: 
Cache L2_bank_006:
MSHR contents
MSHR: tag=0x8007ff80, atomic=0 1 entries : 0x10e29880 :  mf: uid=1888698, sid01:w45, part=3, addr=0x8007ff80, load , size=128, unknown  status = IN_PARTITION_DRAM (131329), 

Cache L2_bank_007:
MSHR contents

In Dram Latency Queue (total = 0): 
DRAM[3]: 16 bks, busW=4 BL=8 CL=12, tRRD=2 tCCD=6, tRCD=12 tRAS=28 tRP=12 tRC=40
n_cmd=173357 n_nop=171273 n_act=24 n_pre=8 n_req=1026 n_rd=1368 n_write=684 bw_util=0.02367
n_activity=13876 dram_eff=0.2958
bk0: 64a 172623i bk1: 64a 172590i bk2: 64a 172619i bk3: 64a 172633i bk4: 84a 172535i bk5: 88a 172492i bk6: 128a 172295i bk7: 128a 172080i bk8: 128a 172369i bk9: 128a 172402i bk10: 88a 172886i bk11: 84a 172946i bk12: 64a 173182i bk13: 64a 173210i bk14: 64a 173192i bk15: 64a 173176i 
dram_util_bins: 0 0 0 0 0 0 0 0 0 0
dram_eff_bins: 0 0 0 0 0 0 0 0 0 0
mrqq: max=16 avg=0.0624665
Memory Partition 4: 
Cache L2_bank_008:
MSHR contents

Cache L2_bank_009:
MSHR contents

In Dram Latency Queue (total = 0): 
DRAM[4]: 16 bks, busW=4 BL=8 CL=12, tRRD=2 tCCD=6, tRCD=12 tRAS=28 tRP=12 tRC=40
n_cmd=173357 n_nop=171273 n_act=24 n_pre=8 n_req=1026 n_rd=1368 n_write=684 bw_util=0.02367
n_activity=13864 dram_eff=0.296
bk0: 64a 172668i bk1: 64a 172547i bk2: 64a 172636i bk3: 64a 172658i bk4: 84a 172537i bk5: 88a 172495i bk6: 128a 172284i bk7: 128a 172030i bk8: 128a 172424i bk9: 128a 172405i bk10: 88a 172880i bk11: 84a 172933i bk12: 64a 173200i bk13: 64a 173209i bk14: 64a 173203i bk15: 64a 173197i 
dram_util_bins: 0 0 0 0 0 0 0 0 0 0
dram_eff_bins: 0 0 0 0 0 0 0 0 0 0
mrqq: max=16 avg=0.0638682
Memory Partition 5: 
Cache L2_bank_010:
MSHR contents

Cache L2_bank_011:
MSHR contents

In Dram Latency Queue (total = 0): 
DRAM[5]: 16 bks, busW=4 BL=8 CL=12, tRRD=2 tCCD=6, tRCD=12 tRAS=28 tRP=12 tRC=40
n_cmd=173357 n_nop=171281 n_act=24 n_pre=8 n_req=1022 n_rd=1364 n_write=680 bw_util=0.02358
n_activity=13903 dram_eff=0.294
bk0: 64a 172610i bk1: 64a 172636i bk2: 64a 172659i bk3: 64a 172676i bk4: 84a 172549i bk5: 88a 172446i bk6: 128a 172225i bk7: 128a 172062i bk8: 128a 172430i bk9: 128a 172422i bk10: 84a 172957i bk11: 84a 172939i bk12: 64a 173215i bk13: 64a 173202i bk14: 64a 173196i bk15: 64a 173216i 
dram_util_bins: 0 0 0 0 0 0 0 0 0 0
dram_eff_bins: 0 0 0 0 0 0 0 0 0 0
mrqq: max=16 avg=0.056698

========= L2 cache stats =========
L2_cache_bank[0]: Access = 1641, Miss = 345, Miss_rate = 0.210, Pending_hits = 15, Reservation_fails = 543
L2_cache_bank[1]: Access = 1506, Miss = 340, Miss_rate = 0.226, Pending_hits = 0, Reservation_fails = 0
L2_cache_bank[2]: Access = 1546, Miss = 344, Miss_rate = 0.223, Pending_hits = 6, Reservation_fails = 204
L2_cache_bank[3]: Access = 1507, Miss = 340, Miss_rate = 0.226, Pending_hits = 0, Reservation_fails = 0
L2_cache_bank[4]: Access = 1546, Miss = 344, Miss_rate = 0.223, Pending_hits = 6, Reservation_fails = 163
L2_cache_bank[5]: Access = 1519, Miss = 342, Miss_rate = 0.225, Pending_hits = 0, Reservation_fails = 173
L2_cache_bank[6]: Access = 1516, Miss = 342, Miss_rate = 0.226, Pending_hits = 0, Reservation_fails = 0
L2_cache_bank[7]: Access = 1518, Miss = 342, Miss_rate = 0.225, Pending_hits = 0, Reservation_fails = 23
L2_cache_bank[8]: Access = 1509, Miss = 342, Miss_rate = 0.227, Pending_hits = 0, Reservation_fails = 128
L2_cache_bank[9]: Access = 1518, Miss = 342, Miss_rate = 0.225, Pending_hits = 0, Reservation_fails = 56
L2_cache_bank[10]: Access = 1507, Miss = 340, Miss_rate = 0.226, Pending_hits = 0, Reservation_fails = 48
L2_cache_bank[11]: Access = 1518, Miss = 342, Miss_rate = 0.225, Pending_hits = 0, Reservation_fails = 44
L2_total_cache_accesses = 18351
L2_total_cache_misses = 4105
L2_total_cache_miss_rate = 0.2237
L2_total_cache_pending_hits = 27
L2_total_cache_reservation_fails = 1382
L2_total_cache_breakdown:
	L2_cache_stats_breakdown[GLOBAL_ACC_R][HIT] = 14142
	L2_cache_stats_breakdown[GLOBAL_ACC_R][HIT_RESERVED] = 6
	L2_cache_stats_breakdown[GLOBAL_ACC_R][MISS] = 2050
	L2_cache_stats_breakdown[GLOBAL_ACC_R][RESERVATION_FAIL] = 728
	L2_cache_stats_breakdown[CONST_ACC_R][HIT] = 11
	L2_cache_stats_breakdown[CONST_ACC_R][HIT_RESERVED] = 3
	L2_cache_stats_breakdown[CONST_ACC_R][MISS] = 1
	L2_cache_stats_breakdown[CONST_ACC_R][RESERVATION_FAIL] = 109
	L2_cache_stats_breakdown[GLOBAL_ACC_W][MISS] = 2048
	L2_cache_stats_breakdown[INST_ACC_R][HIT] = 66
	L2_cache_stats_breakdown[INST_ACC_R][HIT_RESERVED] = 18
	L2_cache_stats_breakdown[INST_ACC_R][MISS] = 6
	L2_cache_stats_breakdown[INST_ACC_R][RESERVATION_FAIL] = 545
L2_cache_data_port_util = 0.036
L2_cache_fill_port_util = 0.010

icnt_total_pkts_mem_to_simt=83533
icnt_total_pkts_simt_to_mem=26543
LD_mem_lat_dist  0 0 0 0 0 0 0 0 0 0 0 0 0 0 0 0 0 0 0 0 0 0 0 0 0 0 0
ST_mem_lat_dist  0 0 0 0 0 0 0 0 0 0 0 0 0 0 0 0 0 0 0 0 0 0 0 0 0 0 0
----------------------------Interconnect-DETAILS--------------------------------
Class 0:
Packet latency average = 12.1131
	minimum = 6
	maximum = 80
Network latency average = 11.5715
	minimum = 6
	maximum = 65
Slowest packet = 685
Flit latency average = 11.1029
	minimum = 6
	maximum = 61
Slowest flit = 15053
Fragmentation average = 0
	minimum = 0
	maximum = 0
Injected packet rate average = 0.0103504
	minimum = 0.00875643 (at node 2)
	maximum = 0.0124951 (at node 15)
Accepted packet rate average = 0.0103504
	minimum = 0.00875643 (at node 2)
	maximum = 0.0124951 (at node 15)
Injected flit rate average = 0.0310426
	minimum = 0.0128986 (at node 2)
	maximum = 0.0570691 (at node 15)
Accepted flit rate average= 0.0310426
	minimum = 0.0166448 (at node 16)
	maximum = 0.0433405 (at node 1)
Injected packet length average = 2.99918
Accepted packet length average = 2.99918
Total in-flight flits = 0 (0 measured)
====== Overall Traffic Statistics ======
====== Traffic class 0 ======
Packet latency average = 12.1131 (1 samples)
	minimum = 6 (1 samples)
	maximum = 80 (1 samples)
Network latency average = 11.5715 (1 samples)
	minimum = 6 (1 samples)
	maximum = 65 (1 samples)
Flit latency average = 11.1029 (1 samples)
	minimum = 6 (1 samples)
	maximum = 61 (1 samples)
Fragmentation average = 0 (1 samples)
	minimum = 0 (1 samples)
	maximum = 0 (1 samples)
Injected packet rate average = 0.0103504 (1 samples)
	minimum = 0.00875643 (1 samples)
	maximum = 0.0124951 (1 samples)
Accepted packet rate average = 0.0103504 (1 samples)
	minimum = 0.00875643 (1 samples)
	maximum = 0.0124951 (1 samples)
Injected flit rate average = 0.0310426 (1 samples)
	minimum = 0.0128986 (1 samples)
	maximum = 0.0570691 (1 samples)
Accepted flit rate average = 0.0310426 (1 samples)
	minimum = 0.0166448 (1 samples)
	maximum = 0.0433405 (1 samples)
Injected packet size average = 2.99918 (1 samples)
Accepted packet size average = 2.99918 (1 samples)
Hops average = 1 (1 samples)
----------------------------END-of-Interconnect-DETAILS-------------------------


gpgpu_simulation_time = 0 days, 0 hrs, 4 min, 11 sec (251 sec)
gpgpu_simulation_rate = 355812 (inst/sec)
gpgpu_simulation_rate = 523 (cycle/sec)
Processing time: 250431.640625 (ms) -- do done kernel  
hello
Test PASSED

Press ENTER to exit...
