

        *** GPGPU-Sim Simulator Version 3.2.2  [build 0] ***


GPGPU-Sim PTX: simulation mode 0 (can change with PTX_SIM_MODE_FUNC environment variable:
               1=functional simulation only, 0=detailed performance simulator)
GPGPU-Sim: Configuration options:

-network_mode                           1 # Interconnection network mode
-inter_config_file   config_fermi_islip.icnt # Interconnection network config file
-gpgpu_ptx_use_cuobjdump                    1 # Use cuobjdump to extract ptx and sass from binaries
-gpgpu_experimental_lib_support                    0 # Try to extract code from cuda libraries [Broken because of unknown cudaGetExportTable]
-gpgpu_ptx_convert_to_ptxplus                    0 # Convert SASS (native ISA) to ptxplus and run ptxplus
-gpgpu_ptx_force_max_capability                   20 # Force maximum compute capability
-gpgpu_ptx_inst_debug_to_file                    0 # Dump executed instructions' debug information to file
-gpgpu_ptx_inst_debug_file       inst_debug.txt # Executed instructions' debug output file
-gpgpu_ptx_inst_debug_thread_uid                    1 # Thread UID for executed instructions' debug output
-gpgpu_simd_model                       1 # 1 = post-dominator
-gpgpu_shader_core_pipeline              1536:32 # shader core pipeline config, i.e., {<nthread>:<warpsize>}
-gpgpu_tex_cache:l1  4:128:24,L:R:m:N:L,F:128:4,128:2 # per-shader L1 texture cache  (READ-ONLY) config  {<nsets>:<bsize>:<assoc>,<rep>:<wr>:<alloc>:<wr_alloc>,<mshr>:<N>:<merge>,<mq>:<rf>}
-gpgpu_const_cache:l1 64:64:2,L:R:f:N:L,A:2:32,4 # per-shader L1 constant memory cache  (READ-ONLY) config  {<nsets>:<bsize>:<assoc>,<rep>:<wr>:<alloc>:<wr_alloc>,<mshr>:<N>:<merge>,<mq>} 
-gpgpu_cache:il1     4:128:4,L:R:f:N:L,A:2:32,4 # shader L1 instruction cache config  {<nsets>:<bsize>:<assoc>,<rep>:<wr>:<alloc>:<wr_alloc>,<mshr>:<N>:<merge>,<mq>} 
-gpgpu_cache:dl1     32:128:4,L:L:m:N:H,A:32:8,8 # per-shader L1 data cache config  {<nsets>:<bsize>:<assoc>,<rep>:<wr>:<alloc>:<wr_alloc>,<mshr>:<N>:<merge>,<mq> | none}
-gpgpu_cache:dl1PrefL1                 none # per-shader L1 data cache config  {<nsets>:<bsize>:<assoc>,<rep>:<wr>:<alloc>:<wr_alloc>,<mshr>:<N>:<merge>,<mq> | none}
-gpgpu_cache:dl1PreShared                 none # per-shader L1 data cache config  {<nsets>:<bsize>:<assoc>,<rep>:<wr>:<alloc>:<wr_alloc>,<mshr>:<N>:<merge>,<mq> | none}
-gmem_skip_L1D                          0 # global memory access skip L1D cache (implements -Xptxas -dlcm=cg, default=no skip)
-gpgpu_perfect_mem                      0 # enable perfect memory mode (no cache miss)
-n_regfile_gating_group                    4 # group of lanes that should be read/written together)
-gpgpu_clock_gated_reg_file                    0 # enable clock gated reg file for power calculations
-gpgpu_clock_gated_lanes                    0 # enable clock gated lanes for power calculations
-gpgpu_shader_registers                32768 # Number of registers per shader core. Limits number of concurrent CTAs. (default 8192)
-gpgpu_shader_cta                       8 # Maximum number of concurrent CTAs in shader (default 8)
-gpgpu_num_cta_barriers                   16 # Maximum number of named barriers per CTA (default 16)
-gpgpu_n_clusters                      15 # number of processing clusters
-gpgpu_n_cores_per_cluster                    1 # number of simd cores per cluster
-gpgpu_n_cluster_ejection_buffer_size                    8 # number of packets in ejection buffer
-gpgpu_n_ldst_response_buffer_size                    2 # number of response packets in ld/st unit ejection buffer
-gpgpu_shmem_size                   16384 # Size of shared memory per shader core (default 16kB)
-gpgpu_shmem_size                   49152 # Size of shared memory per shader core (default 16kB)
-gpgpu_shmem_size_PrefL1                16384 # Size of shared memory per shader core (default 16kB)
-gpgpu_shmem_size_PrefShared                16384 # Size of shared memory per shader core (default 16kB)
-gpgpu_shmem_num_banks                   32 # Number of banks in the shared memory in each shader core (default 16)
-gpgpu_shmem_limited_broadcast                    0 # Limit shared memory to do one broadcast per cycle (default on)
-gpgpu_shmem_warp_parts                    1 # Number of portions a warp is divided into for shared memory bank conflict check 
-gpgpu_warpdistro_shader                   -1 # Specify which shader core to collect the warp size distribution from
-gpgpu_warp_issue_shader                    0 # Specify which shader core to collect the warp issue distribution from
-gpgpu_local_mem_map                    1 # Mapping from local memory space address to simulated GPU physical address space (default = enabled)
-gpgpu_num_reg_banks                   16 # Number of register banks (default = 8)
-gpgpu_reg_bank_use_warp_id                    0 # Use warp ID in mapping registers to banks (default = off)
-gpgpu_operand_collector_num_units_sp                    6 # number of collector units (default = 4)
-gpgpu_operand_collector_num_units_sfu                    8 # number of collector units (default = 4)
-gpgpu_operand_collector_num_units_mem                    2 # number of collector units (default = 2)
-gpgpu_operand_collector_num_units_gen                    0 # number of collector units (default = 0)
-gpgpu_operand_collector_num_in_ports_sp                    2 # number of collector unit in ports (default = 1)
-gpgpu_operand_collector_num_in_ports_sfu                    1 # number of collector unit in ports (default = 1)
-gpgpu_operand_collector_num_in_ports_mem                    1 # number of collector unit in ports (default = 1)
-gpgpu_operand_collector_num_in_ports_gen                    0 # number of collector unit in ports (default = 0)
-gpgpu_operand_collector_num_out_ports_sp                    2 # number of collector unit in ports (default = 1)
-gpgpu_operand_collector_num_out_ports_sfu                    1 # number of collector unit in ports (default = 1)
-gpgpu_operand_collector_num_out_ports_mem                    1 # number of collector unit in ports (default = 1)
-gpgpu_operand_collector_num_out_ports_gen                    0 # number of collector unit in ports (default = 0)
-gpgpu_coalesce_arch                   13 # Coalescing arch (default = 13, anything else is off for now)
-gpgpu_num_sched_per_core                    2 # Number of warp schedulers per core
-gpgpu_max_insn_issue_per_warp                    1 # Max number of instructions that can be issued per warp in one cycle by scheduler
-gpgpu_simt_core_sim_order                    1 # Select the simulation order of cores in a cluster (0=Fix, 1=Round-Robin)
-gpgpu_pipeline_widths        2,1,1,2,1,1,2 # Pipeline widths ID_OC_SP,ID_OC_SFU,ID_OC_MEM,OC_EX_SP,OC_EX_SFU,OC_EX_MEM,EX_WB
-gpgpu_num_sp_units                     2 # Number of SP units (default=1)
-gpgpu_num_sfu_units                    1 # Number of SF units (default=1)
-gpgpu_num_mem_units                    1 # Number if ldst units (default=1) WARNING: not hooked up to anything
-gpgpu_scheduler                      gto # Scheduler configuration: < lrr | gto | two_level_active > If two_level_active:<num_active_warps>:<inner_prioritization>:<outer_prioritization>For complete list of prioritization values see shader.h enum scheduler_prioritization_typeDefault: gto
-gpgpu_dram_scheduler                    1 # 0 = fifo, 1 = FR-FCFS (defaul)
-gpgpu_dram_partition_queues              8:8:8:8 # i2$:$2d:d2$:$2i
-l2_ideal                               0 # Use a ideal L2 cache that always hit
-gpgpu_cache:dl2     64:128:8,L:B:m:W:L,A:32:4,4:0,32 # unified banked L2 data cache config  {<nsets>:<bsize>:<assoc>,<rep>:<wr>:<alloc>:<wr_alloc>,<mshr>:<N>:<merge>,<mq>}
-gpgpu_cache:dl2_texture_only                    0 # L2 cache used for texture only
-gpgpu_n_mem                            6 # number of memory modules (e.g. memory controllers) in gpu
-gpgpu_n_sub_partition_per_mchannel                    2 # number of memory subpartition in each memory module
-gpgpu_n_mem_per_ctrlr                    2 # number of memory chips per memory controller
-gpgpu_memlatency_stat                   14 # track and display latency statistics 0x2 enables MC, 0x4 enables queue logs
-gpgpu_frfcfs_dram_sched_queue_size                   16 # 0 = unlimited (default); # entries per chip
-gpgpu_dram_return_queue_size                  116 # 0 = unlimited (default); # entries per chip
-gpgpu_dram_buswidth                    4 # default = 4 bytes (8 bytes per cycle at DDR)
-gpgpu_dram_burst_length                    8 # Burst length of each DRAM request (default = 4 data bus cycle)
-dram_data_command_freq_ratio                    4 # Frequency ratio between DRAM data bus and command bus (default = 2 times, i.e. DDR)
-gpgpu_dram_timing_opt nbk=16:CCD=2:RRD=6:RCD=12:RAS=28:RP=12:RC=40: CL=12:WL=4:CDLR=5:WR=12:nbkgrp=4:CCDL=3:RTPL=2 # DRAM timing parameters = {nbk:tCCD:tRRD:tRCD:tRAS:tRP:tRC:CL:WL:tCDLR:tWR:nbkgrp:tCCDL:tRTPL}
-rop_latency                          120 # ROP queue latency (default 85)
-dram_latency                         100 # DRAM latency (default 30)
-gpgpu_mem_addr_mapping dramid@8;00000000.00000000.00000000.00000000.0000RRRR.RRRRRRRR.BBBCCCCB.CCSSSSSS # mapping memory address to dram model {dramid@<start bit>;<memory address map>}
-gpgpu_mem_addr_test                    0 # run sweep test to check address mapping for aliased address
-gpgpu_mem_address_mask                    1 # 0 = old addressing mask, 1 = new addressing mask, 2 = new add. mask + flipped bank sel and chip sel bits
-gpuwattch_xml_file  gpuwattch_gtx480.xml # GPUWattch XML file
-power_simulation_enabled                    1 # Turn on power simulator (1=On, 0=Off)
-power_per_cycle_dump                    0 # Dump detailed power output each cycle
-power_trace_enabled                    0 # produce a file for the power trace (1=On, 0=Off)
-power_trace_zlevel                     6 # Compression level of the power trace output log (0=no comp, 9=highest)
-steady_power_levels_enabled                    0 # produce a file for the steady power levels (1=On, 0=Off)
-steady_state_definition                  8:4 # allowed deviation:number of samples
-gpgpu_max_cycle                        0 # terminates gpu simulation early (0 = no limit)
-gpgpu_max_insn                         0 # terminates gpu simulation early (0 = no limit)
-gpgpu_max_cta                          0 # terminates gpu simulation early (0 = no limit)
-gpgpu_runtime_stat                   500 # display runtime statistics such as dram utilization {<freq>:<flag>}
-liveness_message_freq                    1 # Minimum number of seconds between simulation liveness messages (0 = always print)
-gpgpu_flush_l1_cache                    0 # Flush L1 cache at the end of each kernel call
-gpgpu_flush_l2_cache                    0 # Flush L2 cache at the end of each kernel call
-gpgpu_deadlock_detect                    1 # Stop the simulation at deadlock (1=on (default), 0=off)
-gpgpu_ptx_instruction_classification                    0 # if enabled will classify ptx instruction types per kernel (Max 255 kernels now)
-gpgpu_ptx_sim_mode                     0 # Select between Performance (default) or Functional simulation (1)
-gpgpu_clock_domains 700.0:700.0:700.0:924.0 # Clock Domain Frequencies in MhZ {<Core Clock>:<ICNT Clock>:<L2 Clock>:<DRAM Clock>}
-gpgpu_max_concurrent_kernel                    8 # maximum kernels that can run concurrently on GPU
-gpgpu_cflog_interval                    0 # Interval between each snapshot in control flow logger
-visualizer_enabled                     0 # Turn on visualizer output (1=On, 0=Off)
-visualizer_outputfile                 NULL # Specifies the output log file for visualizer
-visualizer_zlevel                      6 # Compression level of the visualizer output log (0=no comp, 9=highest)
-trace_enabled                          0 # Turn on traces
-trace_components                    none # comma seperated list of traces to enable. Complete list found in trace_streams.tup. Default none
-trace_sampling_core                    0 # The core which is printed using CORE_DPRINTF. Default 0
-trace_sampling_memory_partition                   -1 # The memory partition which is printed using MEMPART_DPRINTF. Default -1 (i.e. all)
-enable_ptx_file_line_stats                    1 # Turn on PTX source line statistic profiling. (1 = On)
-ptx_line_stats_filename gpgpu_inst_stats.txt # Output file for PTX source line statistics.
-save_embedded_ptx                      0 # saves ptx files embedded in binary as <n>.ptx
-keep                                   0 # keep intermediate files created by GPGPU-Sim when interfacing with external programs
-gpgpu_ptx_save_converted_ptxplus                    0 # Saved converted ptxplus to a file
-ptx_opcode_latency_int         4,13,4,5,145 # Opcode latencies for integers <ADD,MAX,MUL,MAD,DIV>Default 1,1,19,25,145
-ptx_opcode_latency_fp          4,13,4,5,39 # Opcode latencies for single precision floating points <ADD,MAX,MUL,MAD,DIV>Default 1,1,1,1,30
-ptx_opcode_latency_dp         8,19,8,8,330 # Opcode latencies for double precision floating points <ADD,MAX,MUL,MAD,DIV>Default 8,8,8,8,335
-ptx_opcode_initiation_int            1,2,2,1,8 # Opcode initiation intervals for integers <ADD,MAX,MUL,MAD,DIV>Default 1,1,4,4,32
-ptx_opcode_initiation_fp            1,2,1,1,4 # Opcode initiation intervals for single precision floating points <ADD,MAX,MUL,MAD,DIV>Default 1,1,1,1,5
-ptx_opcode_initiation_dp         8,16,8,8,130 # Opcode initiation intervals for double precision floating points <ADD,MAX,MUL,MAD,DIV>Default 8,8,8,8,130
DRAM Timing Options:
nbk                                    16 # number of banks
CCD                                     2 # column to column delay
RRD                                     6 # minimal delay between activation of rows in different banks
RCD                                    12 # row to column delay
RAS                                    28 # time needed to activate row
RP                                     12 # time needed to precharge (deactivate) row
RC                                     40 # row cycle time
CDLR                                    5 # switching from write to read (changes tWTR)
WR                                     12 # last data-in to row precharge
CL                                     12 # CAS latency
WL                                      4 # Write latency
nbkgrp                                  4 # number of bank groups
CCDL                                    3 # column to column delay between accesses to different bank groups
RTPL                                    2 # read to precharge delay between accesses to different bank groups
Total number of memory sub partition = 12
addr_dec_mask[CHIP]  = 0000000000000000 	high:64 low:0
addr_dec_mask[BK]    = 000000000000e100 	high:16 low:8
addr_dec_mask[ROW]   = 000000000fff0000 	high:28 low:16
addr_dec_mask[COL]   = 0000000000001eff 	high:13 low:0
addr_dec_mask[BURST] = 000000000000003f 	high:6 low:0
sub_partition_id_mask = 0000000000000100
GPGPU-Sim uArch: clock freqs: 700000000.000000:700000000.000000:700000000.000000:924000000.000000
GPGPU-Sim uArch: clock periods: 0.00000000142857142857:0.00000000142857142857:0.00000000142857142857:0.00000000108225108225
*** Initializing Memory Statistics ***
GPGPU-Sim uArch: interconnect node map (shaderID+MemID to icntID)
GPGPU-Sim uArch: Memory nodes ID start from index: 15
GPGPU-Sim uArch:    0   1   2   3   4
GPGPU-Sim uArch:    5   6   7   8   9
GPGPU-Sim uArch:   10  11  12  13  14
GPGPU-Sim uArch:   15  16  17  18  19
GPGPU-Sim uArch:   20  21  22  23  24
GPGPU-Sim uArch:   25  26
GPGPU-Sim uArch: interconnect node reverse map (icntID to shaderID+MemID)
GPGPU-Sim uArch: Memory nodes start from ID: 15
GPGPU-Sim uArch:    0   1   2   3   4
GPGPU-Sim uArch:    5   6   7   8   9
GPGPU-Sim uArch:   10  11  12  13  14
GPGPU-Sim uArch:   15  16  17  18  19
GPGPU-Sim uArch:   20  21  22  23  24
GPGPU-Sim uArch:   25  26
3e81b868ff9ee46ab34350e51c40247d  /home/ece786/NVIDIA_GPU_Computing_SDK/C/bin/linux/release/matrix
GPGPU-Sim uArch: performance model initialization complete.
GPGPU-Sim PTX: FatBin file name extraction has not been tested on 32-bit system.
GPGPU-Sim PTX: __cudaRegisterFatBinary, fat_cubin_handle = 1, filename=matrix.cu
self exe links to: /home/ece786/NVIDIA_GPU_Computing_SDK/C/bin/linux/release/matrix
Running md5sum using "md5sum /home/ece786/NVIDIA_GPU_Computing_SDK/C/bin/linux/release/matrix "
Running cuobjdump using "$CUDA_INSTALL_PATH/bin/cuobjdump -ptx -elf -sass /home/ece786/NVIDIA_GPU_Computing_SDK/C/bin/linux/release/matrix > _cuobjdump_complete_output_oRSoM6"
Parsing file _cuobjdump_complete_output_oRSoM6
######### cuobjdump parser ########
## Adding new section PTX
Adding ptx filename: _cuobjdump_1.ptx
Adding arch: sm_10
Adding identifier: matrix.cu
## Adding new section ELF
Adding arch: sm_10
Adding identifier: matrix.cu
## Adding new section PTX
Adding ptx filename: _cuobjdump_2.ptx
Adding arch: sm_20
Adding identifier: matrix.cu
## Adding new section ELF
Adding arch: sm_20
Adding identifier: matrix.cu
Done parsing!!!
GPGPU-Sim PTX: __cudaRegisterFunction _Z10testKernelPfS_S_jjjj : hostFun 0x0x804b4c0, fat_cubin_handle = 1
GPGPU-Sim PTX: allocating shared region for "__cuda___cuda_local_var_35276_35_non_const_shm_matrixB28" from 0x0 to 0x0 (shared memory space)
GPGPU-Sim PTX: allocating shared region for "__cuda___cuda_local_var_35283_35_non_const_shm_subMatrixA348" from 0x180 to 0x0 (shared memory space)
GPGPU-Sim PTX: instruction assembly for function '_Z10testKernelPfS_S_jjjj'...   done.
GPGPU-Sim PTX: finding reconvergence points for '_Z10testKernelPfS_S_jjjj'...
GPGPU-Sim PTX: Finding dominators for '_Z10testKernelPfS_S_jjjj'...
GPGPU-Sim PTX: Finding immediate dominators for '_Z10testKernelPfS_S_jjjj'...
GPGPU-Sim PTX: Finding postdominators for '_Z10testKernelPfS_S_jjjj'...
GPGPU-Sim PTX: Finding immediate postdominators for '_Z10testKernelPfS_S_jjjj'...
GPGPU-Sim PTX: pre-decoding instructions for '_Z10testKernelPfS_S_jjjj'...
GPGPU-Sim PTX: reconvergence points for _Z10testKernelPfS_S_jjjj...
GPGPU-Sim PTX:  1 (potential) branch divergence @  PC=0x018 (_1.ptx:70) @%p1 bra $Lt_0_5378;
GPGPU-Sim PTX:    immediate post dominator      @  PC=0x058 (_1.ptx:81) mov.u32 %r3, __cuda___cuda_local_var_35276_35_non_const_shm_matrixB28;
GPGPU-Sim PTX:  2 (potential) branch divergence @  PC=0x070 (_1.ptx:84) @%p2 bra $Lt_0_5890;
GPGPU-Sim PTX:    immediate post dominator      @  PC=0x0a8 (_1.ptx:93) mov.u32 %r10, 31;
GPGPU-Sim PTX:  3 (potential) branch divergence @  PC=0x0b8 (_1.ptx:95) @%p3 bra $Lt_0_6402;
GPGPU-Sim PTX:    immediate post dominator      @  PC=0x0e8 (_1.ptx:103) mov.u32 %r11, __cuda___cuda_local_var_35283_35_non_const_shm_subMatrixA348;
GPGPU-Sim PTX:  4 (potential) branch divergence @  PC=0x148 (_1.ptx:116) @%p4 bra $Lt_0_9474;
GPGPU-Sim PTX:    immediate post dominator      @  PC=0x338 (_1.ptx:195) ld.param.u32 %r53, [__cudaparm__Z10testKernelPfS_S_jjjj_d_matrixC];
GPGPU-Sim PTX:  5 (potential) branch divergence @  PC=0x1d0 (_1.ptx:135) @%p6 bra $Lt_0_7938;
GPGPU-Sim PTX:    immediate post dominator      @  PC=0x238 (_1.ptx:153) bar.sync 0;
GPGPU-Sim PTX:  6 (potential) branch divergence @  PC=0x220 (_1.ptx:146) bra.uni $Lt_0_7682;
GPGPU-Sim PTX:    immediate post dominator      @  PC=0x238 (_1.ptx:153) bar.sync 0;
GPGPU-Sim PTX:  7 (potential) branch divergence @  PC=0x240 (_1.ptx:154) @!%p5 bra $Lt_0_8194;
GPGPU-Sim PTX:    immediate post dominator      @  PC=0x2f8 (_1.ptx:184) bar.sync 0;
GPGPU-Sim PTX:  8 (potential) branch divergence @  PC=0x2f0 (_1.ptx:181) @%p7 bra $Lt_0_8706;
GPGPU-Sim PTX:    immediate post dominator      @  PC=0x2f8 (_1.ptx:184) bar.sync 0;
GPGPU-Sim PTX:  9 (potential) branch divergence @  PC=0x310 (_1.ptx:187) @%p8 bra $Lt_0_7426;
GPGPU-Sim PTX:    immediate post dominator      @  PC=0x318 (_1.ptx:188) bra.uni $Lt_0_6914;
GPGPU-Sim PTX: 10 (potential) branch divergence @  PC=0x318 (_1.ptx:188) bra.uni $Lt_0_6914;
GPGPU-Sim PTX:    immediate post dominator      @  PC=0x338 (_1.ptx:195) ld.param.u32 %r53, [__cudaparm__Z10testKernelPfS_S_jjjj_d_matrixC];
GPGPU-Sim PTX: ... end of reconvergence points for _Z10testKernelPfS_S_jjjj
GPGPU-Sim PTX: ... done pre-decoding instructions for '_Z10testKernelPfS_S_jjjj'.
GPGPU-Sim PTX: finished parsing EMBEDDED .ptx file _1.ptx
Adding _cuobjdump_2.ptx with cubin handle 1
GPGPU-Sim PTX: extracting embedded .ptx to temporary file "_ptx_SUOKyk"
Running: cat _ptx_SUOKyk | sed 's/.version 1.5/.version 1.4/' | sed 's/, texmode_independent//' | sed 's/\(\.extern \.const\[1\] .b8 \w\+\)\[\]/\1\[1\]/' | sed 's/const\[.\]/const\[0\]/g' > _ptx2_IfQ8ky
GPGPU-Sim PTX: generating ptxinfo using "$CUDA_INSTALL_PATH/bin/ptxas --gpu-name=sm_20 -v _ptx2_IfQ8ky --output-file  /dev/null 2> _ptx_SUOKykinfo"
GPGPU-Sim PTX: Kernel '_Z10testKernelPfS_S_jjjj' : regs=17, lmem=0, smem=1472, cmem=60
GPGPU-Sim PTX: removing ptxinfo using "rm -f _ptx_SUOKyk _ptx2_IfQ8ky _ptx_SUOKykinfo"
GPGPU-Sim PTX: loading globals with explicit initializers... 
GPGPU-Sim PTX: finished loading globals (0 bytes total).
GPGPU-Sim PTX: loading constants with explicit initializers...  done.
initalize A
matrix A
matrix B
Start Timer

GPGPU-Sim PTX: cudaLaunch for 0x0x804b4c0 (mode=performance simulation) on stream 0
GPGPU-Sim PTX: pushing kernel '_Z10testKernelPfS_S_jjjj' to stream 0, gridDim= (1,128,1) blockDim = (256,1,1) 
kernel '_Z10testKernelPfS_S_jjjj' transfer to GPU hardware scheduler
GPGPU-Sim uArch: Shader 1 bind to kernel 1 '_Z10testKernelPfS_S_jjjj'
GPGPU-Sim uArch: CTA/core = 6, limited by: threads regs
GPGPU-Sim uArch: core:  1, cta: 0 initialized @(1,0)
GPGPU-Sim uArch: Shader 2 bind to kernel 1 '_Z10testKernelPfS_S_jjjj'
GPGPU-Sim uArch: core:  2, cta: 0 initialized @(1,0)
GPGPU-Sim uArch: Shader 3 bind to kernel 1 '_Z10testKernelPfS_S_jjjj'
GPGPU-Sim uArch: core:  3, cta: 0 initialized @(1,0)
GPGPU-Sim uArch: Shader 4 bind to kernel 1 '_Z10testKernelPfS_S_jjjj'
GPGPU-Sim uArch: core:  4, cta: 0 initialized @(1,0)
GPGPU-Sim uArch: Shader 5 bind to kernel 1 '_Z10testKernelPfS_S_jjjj'
GPGPU-Sim uArch: core:  5, cta: 0 initialized @(1,0)
GPGPU-Sim uArch: Shader 6 bind to kernel 1 '_Z10testKernelPfS_S_jjjj'
GPGPU-Sim uArch: core:  6, cta: 0 initialized @(1,0)
GPGPU-Sim uArch: Shader 7 bind to kernel 1 '_Z10testKernelPfS_S_jjjj'
GPGPU-Sim uArch: core:  7, cta: 0 initialized @(1,0)
GPGPU-Sim uArch: Shader 8 bind to kernel 1 '_Z10testKernelPfS_S_jjjj'
GPGPU-Sim uArch: core:  8, cta: 0 initialized @(1,0)
GPGPU-Sim uArch: Shader 9 bind to kernel 1 '_Z10testKernelPfS_S_jjjj'
GPGPU-Sim uArch: core:  9, cta: 0 initialized @(1,0)
GPGPU-Sim uArch: Shader 10 bind to kernel 1 '_Z10testKernelPfS_S_jjjj'
GPGPU-Sim uArch: core: 10, cta: 0 initialized @(1,0)
GPGPU-Sim uArch: Shader 11 bind to kernel 1 '_Z10testKernelPfS_S_jjjj'
GPGPU-Sim uArch: core: 11, cta: 0 initialized @(1,0)
GPGPU-Sim uArch: Shader 12 bind to kernel 1 '_Z10testKernelPfS_S_jjjj'
GPGPU-Sim uArch: core: 12, cta: 0 initialized @(1,0)
GPGPU-Sim uArch: Shader 13 bind to kernel 1 '_Z10testKernelPfS_S_jjjj'
GPGPU-Sim uArch: core: 13, cta: 0 initialized @(1,0)
GPGPU-Sim uArch: Shader 14 bind to kernel 1 '_Z10testKernelPfS_S_jjjj'
GPGPU-Sim uArch: core: 14, cta: 0 initialized @(1,0)
GPGPU-Sim uArch: Shader 0 bind to kernel 1 '_Z10testKernelPfS_S_jjjj'
GPGPU-Sim uArch: core:  0, cta: 0 initialized @(1,0)
GPGPU-Sim uArch: core:  1, cta: 1 initialized @(2,0)
GPGPU-Sim uArch: core:  2, cta: 1 initialized @(2,0)
GPGPU-Sim uArch: core:  3, cta: 1 initialized @(2,0)
GPGPU-Sim uArch: core:  4, cta: 1 initialized @(2,0)
GPGPU-Sim uArch: core:  5, cta: 1 initialized @(2,0)
GPGPU-Sim uArch: core:  6, cta: 1 initialized @(2,0)
GPGPU-Sim uArch: core:  7, cta: 1 initialized @(2,0)
GPGPU-Sim uArch: core:  8, cta: 1 initialized @(2,0)
GPGPU-Sim uArch: core:  9, cta: 1 initialized @(2,0)
GPGPU-Sim uArch: core: 10, cta: 1 initialized @(2,0)
GPGPU-Sim uArch: core: 11, cta: 1 initialized @(2,0)
GPGPU-Sim uArch: core: 12, cta: 1 initialized @(2,0)
GPGPU-Sim uArch: core: 13, cta: 1 initialized @(2,0)
GPGPU-Sim uArch: core: 14, cta: 1 initialized @(2,0)
GPGPU-Sim uArch: core:  0, cta: 1 initialized @(2,0)
GPGPU-Sim uArch: core:  1, cta: 2 initialized @(3,0)
GPGPU-Sim uArch: core:  2, cta: 2 initialized @(3,0)
GPGPU-Sim uArch: core:  3, cta: 2 initialized @(3,0)
GPGPU-Sim uArch: core:  4, cta: 2 initialized @(3,0)
GPGPU-Sim uArch: core:  5, cta: 2 initialized @(3,0)
GPGPU-Sim uArch: core:  6, cta: 2 initialized @(3,0)
GPGPU-Sim uArch: core:  7, cta: 2 initialized @(3,0)
GPGPU-Sim uArch: core:  8, cta: 2 initialized @(3,0)
GPGPU-Sim uArch: core:  9, cta: 2 initialized @(3,0)
GPGPU-Sim uArch: core: 10, cta: 2 initialized @(3,0)
GPGPU-Sim uArch: core: 11, cta: 2 initialized @(3,0)
GPGPU-Sim uArch: core: 12, cta: 2 initialized @(3,0)
GPGPU-Sim uArch: core: 13, cta: 2 initialized @(3,0)
GPGPU-Sim uArch: core: 14, cta: 2 initialized @(3,0)
GPGPU-Sim uArch: core:  0, cta: 2 initialized @(3,0)
GPGPU-Sim uArch: core:  1, cta: 3 initialized @(4,0)
GPGPU-Sim uArch: core:  2, cta: 3 initialized @(4,0)
GPGPU-Sim uArch: core:  3, cta: 3 initialized @(4,0)
GPGPU-Sim uArch: core:  4, cta: 3 initialized @(4,0)
GPGPU-Sim uArch: core:  5, cta: 3 initialized @(4,0)
GPGPU-Sim uArch: core:  6, cta: 3 initialized @(4,0)
GPGPU-Sim uArch: core:  7, cta: 3 initialized @(4,0)
GPGPU-Sim uArch: core:  8, cta: 3 initialized @(4,0)
GPGPU-Sim uArch: core:  9, cta: 3 initialized @(4,0)
GPGPU-Sim uArch: core: 10, cta: 3 initialized @(4,0)
GPGPU-Sim uArch: core: 11, cta: 3 initialized @(4,0)
GPGPU-Sim uArch: core: 12, cta: 3 initialized @(4,0)
GPGPU-Sim uArch: core: 13, cta: 3 initialized @(4,0)
GPGPU-Sim uArch: core: 14, cta: 3 initialized @(4,0)
GPGPU-Sim uArch: core:  0, cta: 3 initialized @(4,0)
GPGPU-Sim uArch: core:  1, cta: 4 initialized @(5,0)
GPGPU-Sim uArch: core:  2, cta: 4 initialized @(5,0)
GPGPU-Sim uArch: core:  3, cta: 4 initialized @(5,0)
GPGPU-Sim uArch: core:  4, cta: 4 initialized @(5,0)
GPGPU-Sim uArch: core:  5, cta: 4 initialized @(5,0)
GPGPU-Sim uArch: core:  6, cta: 4 initialized @(5,0)
GPGPU-Sim uArch: core:  7, cta: 4 initialized @(5,0)
GPGPU-Sim uArch: core:  8, cta: 4 initialized @(5,0)
GPGPU-Sim uArch: core:  9, cta: 4 initialized @(5,0)
GPGPU-Sim uArch: core: 10, cta: 4 initialized @(5,0)
GPGPU-Sim uArch: core: 11, cta: 4 initialized @(5,0)
GPGPU-Sim uArch: core: 12, cta: 4 initialized @(5,0)
GPGPU-Sim uArch: core: 13, cta: 4 initialized @(5,0)
GPGPU-Sim uArch: core: 14, cta: 4 initialized @(5,0)
GPGPU-Sim uArch: core:  0, cta: 4 initialized @(5,0)
GPGPU-Sim uArch: core:  1, cta: 5 initialized @(6,0)
GPGPU-Sim uArch: core:  2, cta: 5 initialized @(6,0)
GPGPU-Sim uArch: core:  3, cta: 5 initialized @(6,0)
GPGPU-Sim uArch: core:  4, cta: 5 initialized @(6,0)
GPGPU-Sim uArch: core:  5, cta: 5 initialized @(6,0)
GPGPU-Sim uArch: core:  6, cta: 5 initialized @(6,0)
GPGPU-Sim uArch: core:  7, cta: 5 initialized @(6,0)
GPGPU-Sim uArch: core:  8, cta: 5 initialized @(6,0)
GPGPU-Sim uArch: core:  9, cta: 5 initialized @(6,0)
GPGPU-Sim uArch: core: 10, cta: 5 initialized @(6,0)
GPGPU-Sim uArch: core: 11, cta: 5 initialized @(6,0)
GPGPU-Sim uArch: core: 12, cta: 5 initialized @(6,0)
GPGPU-Sim uArch: core: 13, cta: 5 initialized @(6,0)
GPGPU-Sim uArch: core: 14, cta: 5 initialized @(6,0)
GPGPU-Sim uArch: core:  0, cta: 5 initialized @(6,0)
GPGPU-Sim PTX: 100000 instructions simulated : ctaid=(0,15,0) tid=(239,0,0)
GPGPU-Sim uArch: cycles simulated: 500  inst.: 123816 (ipc=247.6) sim_rate=123816 (inst/sec) elapsed = 0:0:00:01 / Thu Mar 12 18:55:08 2015
GPGPU-Sim PTX: 200000 instructions simulated : ctaid=(0,63,0) tid=(111,0,0)
GPGPU-Sim PTX: 300000 instructions simulated : ctaid=(0,27,0) tid=(111,0,0)
GPGPU-Sim uArch: cycles simulated: 1500  inst.: 380992 (ipc=254.0) sim_rate=190496 (inst/sec) elapsed = 0:0:00:02 / Thu Mar 12 18:55:09 2015
GPGPU-Sim PTX: 400000 instructions simulated : ctaid=(0,2,0) tid=(15,0,0)
GPGPU-Sim PTX: 500000 instructions simulated : ctaid=(0,60,0) tid=(79,0,0)
GPGPU-Sim PTX: 600000 instructions simulated : ctaid=(0,27,0) tid=(111,0,0)
GPGPU-Sim PTX: 700000 instructions simulated : ctaid=(0,86,0) tid=(143,0,0)
GPGPU-Sim PTX: 800000 instructions simulated : ctaid=(0,17,0) tid=(207,0,0)
GPGPU-Sim PTX: 900000 instructions simulated : ctaid=(0,30,0) tid=(143,0,0)
GPGPU-Sim PTX: 1000000 instructions simulated : ctaid=(0,69,0) tid=(111,0,0)
GPGPU-Sim uArch: cycles simulated: 2500  inst.: 1027904 (ipc=411.2) sim_rate=342634 (inst/sec) elapsed = 0:0:00:03 / Thu Mar 12 18:55:10 2015
GPGPU-Sim PTX: 1100000 instructions simulated : ctaid=(0,77,0) tid=(79,0,0)
GPGPU-Sim PTX: 1200000 instructions simulated : ctaid=(0,14,0) tid=(47,0,0)
GPGPU-Sim PTX: 1300000 instructions simulated : ctaid=(0,64,0) tid=(15,0,0)
GPGPU-Sim uArch: cycles simulated: 3500  inst.: 1233600 (ipc=352.5) sim_rate=308400 (inst/sec) elapsed = 0:0:00:04 / Thu Mar 12 18:55:11 2015
GPGPU-Sim PTX: 1400000 instructions simulated : ctaid=(0,19,0) tid=(143,0,0)
GPGPU-Sim PTX: 1500000 instructions simulated : ctaid=(0,7,0) tid=(175,0,0)
GPGPU-Sim PTX: 1600000 instructions simulated : ctaid=(0,38,0) tid=(15,0,0)
GPGPU-Sim PTX: 1700000 instructions simulated : ctaid=(0,26,0) tid=(79,0,0)
GPGPU-Sim uArch: cycles simulated: 4000  inst.: 1654880 (ipc=413.7) sim_rate=330976 (inst/sec) elapsed = 0:0:00:05 / Thu Mar 12 18:55:12 2015
GPGPU-Sim PTX: 1800000 instructions simulated : ctaid=(0,15,0) tid=(15,0,0)
GPGPU-Sim PTX: 1900000 instructions simulated : ctaid=(0,34,0) tid=(47,0,0)
GPGPU-Sim PTX: 2000000 instructions simulated : ctaid=(0,61,0) tid=(143,0,0)
GPGPU-Sim PTX: 2100000 instructions simulated : ctaid=(0,13,0) tid=(175,0,0)
GPGPU-Sim PTX: 2200000 instructions simulated : ctaid=(0,14,0) tid=(207,0,0)
GPGPU-Sim PTX: 2300000 instructions simulated : ctaid=(0,65,0) tid=(207,0,0)
GPGPU-Sim PTX: 2400000 instructions simulated : ctaid=(0,50,0) tid=(111,0,0)
GPGPU-Sim PTX: 2500000 instructions simulated : ctaid=(0,81,0) tid=(15,0,0)
GPGPU-Sim uArch: cycles simulated: 5000  inst.: 2472128 (ipc=494.4) sim_rate=412021 (inst/sec) elapsed = 0:0:00:06 / Thu Mar 12 18:55:13 2015
GPGPU-Sim PTX: 2600000 instructions simulated : ctaid=(0,82,0) tid=(15,0,0)
GPGPU-Sim PTX: 2700000 instructions simulated : ctaid=(0,86,0) tid=(175,0,0)
GPGPU-Sim PTX: 2800000 instructions simulated : ctaid=(0,80,0) tid=(207,0,0)
GPGPU-Sim PTX: 2900000 instructions simulated : ctaid=(0,9,0) tid=(207,0,0)
GPGPU-Sim uArch: cycles simulated: 5500  inst.: 2872032 (ipc=522.2) sim_rate=410290 (inst/sec) elapsed = 0:0:00:07 / Thu Mar 12 18:55:14 2015
GPGPU-Sim PTX: 3000000 instructions simulated : ctaid=(0,31,0) tid=(47,0,0)
GPGPU-Sim PTX: 3100000 instructions simulated : ctaid=(0,80,0) tid=(207,0,0)
GPGPU-Sim PTX: 3200000 instructions simulated : ctaid=(0,66,0) tid=(175,0,0)
GPGPU-Sim PTX: 3300000 instructions simulated : ctaid=(0,85,0) tid=(79,0,0)
GPGPU-Sim uArch: cycles simulated: 6000  inst.: 3252928 (ipc=542.2) sim_rate=406616 (inst/sec) elapsed = 0:0:00:08 / Thu Mar 12 18:55:15 2015
GPGPU-Sim PTX: 3400000 instructions simulated : ctaid=(0,47,0) tid=(15,0,0)
GPGPU-Sim PTX: 3500000 instructions simulated : ctaid=(0,38,0) tid=(47,0,0)
GPGPU-Sim PTX: 3600000 instructions simulated : ctaid=(0,9,0) tid=(47,0,0)
GPGPU-Sim PTX: 3700000 instructions simulated : ctaid=(0,54,0) tid=(143,0,0)
GPGPU-Sim PTX: 3800000 instructions simulated : ctaid=(0,18,0) tid=(111,0,0)
GPGPU-Sim PTX: 3900000 instructions simulated : ctaid=(0,80,0) tid=(15,0,0)
GPGPU-Sim PTX: 4000000 instructions simulated : ctaid=(0,14,0) tid=(15,0,0)
GPGPU-Sim uArch: cycles simulated: 7000  inst.: 3944256 (ipc=563.5) sim_rate=438250 (inst/sec) elapsed = 0:0:00:09 / Thu Mar 12 18:55:16 2015
GPGPU-Sim PTX: 4100000 instructions simulated : ctaid=(0,41,0) tid=(79,0,0)
GPGPU-Sim PTX: 4200000 instructions simulated : ctaid=(0,85,0) tid=(175,0,0)
GPGPU-Sim PTX: 4300000 instructions simulated : ctaid=(0,34,0) tid=(207,0,0)
GPGPU-Sim PTX: 4400000 instructions simulated : ctaid=(0,41,0) tid=(79,0,0)
GPGPU-Sim PTX: 4500000 instructions simulated : ctaid=(0,5,0) tid=(207,0,0)
GPGPU-Sim uArch: cycles simulated: 7500  inst.: 4368000 (ipc=582.4) sim_rate=436800 (inst/sec) elapsed = 0:0:00:10 / Thu Mar 12 18:55:17 2015
GPGPU-Sim PTX: 4600000 instructions simulated : ctaid=(0,15,0) tid=(15,0,0)
GPGPU-Sim PTX: 4700000 instructions simulated : ctaid=(0,31,0) tid=(239,0,0)
GPGPU-Sim PTX: 4800000 instructions simulated : ctaid=(0,41,0) tid=(47,0,0)
GPGPU-Sim PTX: 4900000 instructions simulated : ctaid=(0,9,0) tid=(175,0,0)
GPGPU-Sim uArch: cycles simulated: 8000  inst.: 4779072 (ipc=597.4) sim_rate=434461 (inst/sec) elapsed = 0:0:00:11 / Thu Mar 12 18:55:18 2015
GPGPU-Sim PTX: 5000000 instructions simulated : ctaid=(0,89,0) tid=(79,0,0)
GPGPU-Sim PTX: 5100000 instructions simulated : ctaid=(0,16,0) tid=(143,0,0)
GPGPU-Sim PTX: 5200000 instructions simulated : ctaid=(0,8,0) tid=(15,0,0)
GPGPU-Sim PTX: 5300000 instructions simulated : ctaid=(0,2,0) tid=(47,0,0)
GPGPU-Sim PTX: 5400000 instructions simulated : ctaid=(0,78,0) tid=(239,0,0)
GPGPU-Sim PTX: 5500000 instructions simulated : ctaid=(0,69,0) tid=(79,0,0)
GPGPU-Sim PTX: 5600000 instructions simulated : ctaid=(0,42,0) tid=(207,0,0)
GPGPU-Sim PTX: 5700000 instructions simulated : ctaid=(0,75,0) tid=(175,0,0)
GPGPU-Sim uArch: cycles simulated: 9000  inst.: 5573056 (ipc=619.2) sim_rate=464421 (inst/sec) elapsed = 0:0:00:12 / Thu Mar 12 18:55:19 2015
GPGPU-Sim PTX: 5800000 instructions simulated : ctaid=(0,53,0) tid=(143,0,0)
GPGPU-Sim PTX: 5900000 instructions simulated : ctaid=(0,62,0) tid=(79,0,0)
GPGPU-Sim PTX: 6000000 instructions simulated : ctaid=(0,17,0) tid=(207,0,0)
GPGPU-Sim PTX: 6100000 instructions simulated : ctaid=(0,80,0) tid=(207,0,0)
GPGPU-Sim uArch: cycles simulated: 9500  inst.: 5964800 (ipc=627.9) sim_rate=458830 (inst/sec) elapsed = 0:0:00:13 / Thu Mar 12 18:55:20 2015
GPGPU-Sim PTX: 6200000 instructions simulated : ctaid=(0,43,0) tid=(79,0,0)
GPGPU-Sim PTX: 6300000 instructions simulated : ctaid=(0,4,0) tid=(207,0,0)
GPGPU-Sim PTX: 6400000 instructions simulated : ctaid=(0,1,0) tid=(15,0,0)
GPGPU-Sim PTX: 6500000 instructions simulated : ctaid=(0,0,0) tid=(79,0,0)
GPGPU-Sim uArch: cycles simulated: 10000  inst.: 6367744 (ipc=636.8) sim_rate=454838 (inst/sec) elapsed = 0:0:00:14 / Thu Mar 12 18:55:21 2015
GPGPU-Sim PTX: 6600000 instructions simulated : ctaid=(0,45,0) tid=(207,0,0)
GPGPU-Sim PTX: 6700000 instructions simulated : ctaid=(0,7,0) tid=(79,0,0)
GPGPU-Sim PTX: 6800000 instructions simulated : ctaid=(0,70,0) tid=(239,0,0)
GPGPU-Sim PTX: 6900000 instructions simulated : ctaid=(0,48,0) tid=(111,0,0)
GPGPU-Sim PTX: 7000000 instructions simulated : ctaid=(0,35,0) tid=(207,0,0)
GPGPU-Sim PTX: 7100000 instructions simulated : ctaid=(0,10,0) tid=(79,0,0)
GPGPU-Sim PTX: 7200000 instructions simulated : ctaid=(0,51,0) tid=(143,0,0)
GPGPU-Sim PTX: 7300000 instructions simulated : ctaid=(0,5,0) tid=(111,0,0)
GPGPU-Sim PTX: 7400000 instructions simulated : ctaid=(0,44,0) tid=(79,0,0)
GPGPU-Sim uArch: cycles simulated: 11000  inst.: 7185856 (ipc=653.3) sim_rate=479057 (inst/sec) elapsed = 0:0:00:15 / Thu Mar 12 18:55:22 2015
GPGPU-Sim PTX: 7500000 instructions simulated : ctaid=(0,53,0) tid=(175,0,0)
GPGPU-Sim PTX: 7600000 instructions simulated : ctaid=(0,27,0) tid=(79,0,0)
GPGPU-Sim PTX: 7700000 instructions simulated : ctaid=(0,45,0) tid=(15,0,0)
GPGPU-Sim PTX: 7800000 instructions simulated : ctaid=(0,69,0) tid=(175,0,0)
GPGPU-Sim uArch: cycles simulated: 11500  inst.: 7583584 (ipc=659.4) sim_rate=473974 (inst/sec) elapsed = 0:0:00:16 / Thu Mar 12 18:55:23 2015
GPGPU-Sim PTX: 7900000 instructions simulated : ctaid=(0,28,0) tid=(143,0,0)
GPGPU-Sim PTX: 8000000 instructions simulated : ctaid=(0,78,0) tid=(207,0,0)
GPGPU-Sim PTX: 8100000 instructions simulated : ctaid=(0,78,0) tid=(79,0,0)
GPGPU-Sim PTX: 8200000 instructions simulated : ctaid=(0,45,0) tid=(175,0,0)
GPGPU-Sim uArch: cycles simulated: 12000  inst.: 7983872 (ipc=665.3) sim_rate=469639 (inst/sec) elapsed = 0:0:00:17 / Thu Mar 12 18:55:24 2015
GPGPU-Sim PTX: 8300000 instructions simulated : ctaid=(0,16,0) tid=(15,0,0)
GPGPU-Sim PTX: 8400000 instructions simulated : ctaid=(0,2,0) tid=(207,0,0)
GPGPU-Sim PTX: 8500000 instructions simulated : ctaid=(0,89,0) tid=(15,0,0)
GPGPU-Sim PTX: 8600000 instructions simulated : ctaid=(0,27,0) tid=(143,0,0)
GPGPU-Sim uArch: cycles simulated: 12500  inst.: 8386016 (ipc=670.9) sim_rate=465889 (inst/sec) elapsed = 0:0:00:18 / Thu Mar 12 18:55:25 2015
GPGPU-Sim PTX: 8700000 instructions simulated : ctaid=(0,55,0) tid=(47,0,0)
GPGPU-Sim PTX: 8800000 instructions simulated : ctaid=(0,27,0) tid=(47,0,0)
GPGPU-Sim PTX: 8900000 instructions simulated : ctaid=(0,6,0) tid=(143,0,0)
GPGPU-Sim PTX: 9000000 instructions simulated : ctaid=(0,4,0) tid=(239,0,0)
GPGPU-Sim PTX: 9100000 instructions simulated : ctaid=(0,19,0) tid=(143,0,0)
GPGPU-Sim PTX: 9200000 instructions simulated : ctaid=(0,48,0) tid=(175,0,0)
GPGPU-Sim PTX: 9300000 instructions simulated : ctaid=(0,35,0) tid=(15,0,0)
GPGPU-Sim PTX: 9400000 instructions simulated : ctaid=(0,89,0) tid=(79,0,0)
GPGPU-Sim uArch: cycles simulated: 13500  inst.: 9195840 (ipc=681.2) sim_rate=483991 (inst/sec) elapsed = 0:0:00:19 / Thu Mar 12 18:55:26 2015
GPGPU-Sim PTX: 9500000 instructions simulated : ctaid=(0,13,0) tid=(207,0,0)
GPGPU-Sim PTX: 9600000 instructions simulated : ctaid=(0,77,0) tid=(175,0,0)
GPGPU-Sim PTX: 9700000 instructions simulated : ctaid=(0,73,0) tid=(207,0,0)
GPGPU-Sim PTX: 9800000 instructions simulated : ctaid=(0,31,0) tid=(239,0,0)
GPGPU-Sim uArch: cycles simulated: 14000  inst.: 9599328 (ipc=685.7) sim_rate=479966 (inst/sec) elapsed = 0:0:00:20 / Thu Mar 12 18:55:27 2015
GPGPU-Sim PTX: 9900000 instructions simulated : ctaid=(0,79,0) tid=(239,0,0)
GPGPU-Sim PTX: 10000000 instructions simulated : ctaid=(0,64,0) tid=(111,0,0)
GPGPU-Sim PTX: 10100000 instructions simulated : ctaid=(0,82,0) tid=(111,0,0)
GPGPU-Sim PTX: 10200000 instructions simulated : ctaid=(0,8,0) tid=(207,0,0)
GPGPU-Sim PTX: 10300000 instructions simulated : ctaid=(0,77,0) tid=(111,0,0)
GPGPU-Sim PTX: 10400000 instructions simulated : ctaid=(0,72,0) tid=(79,0,0)
GPGPU-Sim PTX: 10500000 instructions simulated : ctaid=(0,1,0) tid=(111,0,0)
GPGPU-Sim PTX: 10600000 instructions simulated : ctaid=(0,6,0) tid=(239,0,0)
GPGPU-Sim PTX: 10700000 instructions simulated : ctaid=(0,46,0) tid=(143,0,0)
GPGPU-Sim uArch: cycles simulated: 15000  inst.: 10394912 (ipc=693.0) sim_rate=494995 (inst/sec) elapsed = 0:0:00:21 / Thu Mar 12 18:55:28 2015
GPGPU-Sim PTX: 10800000 instructions simulated : ctaid=(0,15,0) tid=(79,0,0)
GPGPU-Sim PTX: 10900000 instructions simulated : ctaid=(0,77,0) tid=(143,0,0)
GPGPU-Sim PTX: 11000000 instructions simulated : ctaid=(0,71,0) tid=(239,0,0)
GPGPU-Sim PTX: 11100000 instructions simulated : ctaid=(0,67,0) tid=(47,0,0)
GPGPU-Sim uArch: cycles simulated: 15500  inst.: 10796960 (ipc=696.6) sim_rate=490770 (inst/sec) elapsed = 0:0:00:22 / Thu Mar 12 18:55:29 2015
GPGPU-Sim PTX: 11200000 instructions simulated : ctaid=(0,71,0) tid=(143,0,0)
GPGPU-Sim PTX: 11300000 instructions simulated : ctaid=(0,46,0) tid=(15,0,0)
GPGPU-Sim PTX: 11400000 instructions simulated : ctaid=(0,10,0) tid=(15,0,0)
GPGPU-Sim PTX: 11500000 instructions simulated : ctaid=(0,19,0) tid=(15,0,0)
GPGPU-Sim uArch: cycles simulated: 16000  inst.: 11205184 (ipc=700.3) sim_rate=487181 (inst/sec) elapsed = 0:0:00:23 / Thu Mar 12 18:55:30 2015
GPGPU-Sim PTX: 11600000 instructions simulated : ctaid=(0,11,0) tid=(79,0,0)
GPGPU-Sim PTX: 11700000 instructions simulated : ctaid=(0,80,0) tid=(143,0,0)
GPGPU-Sim PTX: 11800000 instructions simulated : ctaid=(0,10,0) tid=(175,0,0)
GPGPU-Sim PTX: 11900000 instructions simulated : ctaid=(0,30,0) tid=(143,0,0)
GPGPU-Sim uArch: cycles simulated: 16500  inst.: 11613376 (ipc=703.8) sim_rate=483890 (inst/sec) elapsed = 0:0:00:24 / Thu Mar 12 18:55:31 2015
GPGPU-Sim PTX: 12000000 instructions simulated : ctaid=(0,1,0) tid=(175,0,0)
GPGPU-Sim PTX: 12100000 instructions simulated : ctaid=(0,1,0) tid=(143,0,0)
GPGPU-Sim PTX: 12200000 instructions simulated : ctaid=(0,83,0) tid=(79,0,0)
GPGPU-Sim PTX: 12300000 instructions simulated : ctaid=(0,7,0) tid=(175,0,0)
GPGPU-Sim PTX: 12400000 instructions simulated : ctaid=(0,19,0) tid=(15,0,0)
GPGPU-Sim PTX: 12500000 instructions simulated : ctaid=(0,12,0) tid=(79,0,0)
GPGPU-Sim PTX: 12600000 instructions simulated : ctaid=(0,57,0) tid=(111,0,0)
GPGPU-Sim PTX: 12700000 instructions simulated : ctaid=(0,39,0) tid=(207,0,0)
GPGPU-Sim uArch: cycles simulated: 17500  inst.: 12411008 (ipc=709.2) sim_rate=496440 (inst/sec) elapsed = 0:0:00:25 / Thu Mar 12 18:55:32 2015
GPGPU-Sim PTX: 12800000 instructions simulated : ctaid=(0,9,0) tid=(239,0,0)
GPGPU-Sim PTX: 12900000 instructions simulated : ctaid=(0,57,0) tid=(79,0,0)
GPGPU-Sim PTX: 13000000 instructions simulated : ctaid=(0,32,0) tid=(239,0,0)
GPGPU-Sim PTX: 13100000 instructions simulated : ctaid=(0,13,0) tid=(79,0,0)
GPGPU-Sim uArch: cycles simulated: 18000  inst.: 12813408 (ipc=711.9) sim_rate=492823 (inst/sec) elapsed = 0:0:00:26 / Thu Mar 12 18:55:33 2015
GPGPU-Sim PTX: 13200000 instructions simulated : ctaid=(0,20,0) tid=(239,0,0)
GPGPU-Sim PTX: 13300000 instructions simulated : ctaid=(0,78,0) tid=(47,0,0)
GPGPU-Sim PTX: 13400000 instructions simulated : ctaid=(0,74,0) tid=(143,0,0)
GPGPU-Sim PTX: 13500000 instructions simulated : ctaid=(0,87,0) tid=(15,0,0)
GPGPU-Sim PTX: 13600000 instructions simulated : ctaid=(0,18,0) tid=(79,0,0)
GPGPU-Sim uArch: cycles simulated: 18500  inst.: 13216576 (ipc=714.4) sim_rate=489502 (inst/sec) elapsed = 0:0:00:27 / Thu Mar 12 18:55:34 2015
GPGPU-Sim PTX: 13700000 instructions simulated : ctaid=(0,69,0) tid=(15,0,0)
GPGPU-Sim PTX: 13800000 instructions simulated : ctaid=(0,12,0) tid=(111,0,0)
GPGPU-Sim PTX: 13900000 instructions simulated : ctaid=(0,78,0) tid=(47,0,0)
GPGPU-Sim PTX: 14000000 instructions simulated : ctaid=(0,6,0) tid=(79,0,0)
GPGPU-Sim uArch: cycles simulated: 19000  inst.: 13622496 (ipc=717.0) sim_rate=486517 (inst/sec) elapsed = 0:0:00:28 / Thu Mar 12 18:55:35 2015
GPGPU-Sim PTX: 14100000 instructions simulated : ctaid=(0,80,0) tid=(239,0,0)
GPGPU-Sim PTX: 14200000 instructions simulated : ctaid=(0,68,0) tid=(175,0,0)
GPGPU-Sim PTX: 14300000 instructions simulated : ctaid=(0,57,0) tid=(111,0,0)
GPGPU-Sim PTX: 14400000 instructions simulated : ctaid=(0,20,0) tid=(239,0,0)
GPGPU-Sim PTX: 14500000 instructions simulated : ctaid=(0,58,0) tid=(79,0,0)
GPGPU-Sim PTX: 14600000 instructions simulated : ctaid=(0,64,0) tid=(143,0,0)
GPGPU-Sim PTX: 14700000 instructions simulated : ctaid=(0,42,0) tid=(175,0,0)
GPGPU-Sim PTX: 14800000 instructions simulated : ctaid=(0,15,0) tid=(239,0,0)
GPGPU-Sim uArch: cycles simulated: 20000  inst.: 14421856 (ipc=721.1) sim_rate=497305 (inst/sec) elapsed = 0:0:00:29 / Thu Mar 12 18:55:36 2015
GPGPU-Sim PTX: 14900000 instructions simulated : ctaid=(0,58,0) tid=(15,0,0)
GPGPU-Sim PTX: 15000000 instructions simulated : ctaid=(0,46,0) tid=(143,0,0)
GPGPU-Sim PTX: 15100000 instructions simulated : ctaid=(0,13,0) tid=(111,0,0)
GPGPU-Sim PTX: 15200000 instructions simulated : ctaid=(0,70,0) tid=(47,0,0)
GPGPU-Sim uArch: cycles simulated: 20500  inst.: 14818336 (ipc=722.8) sim_rate=493944 (inst/sec) elapsed = 0:0:00:30 / Thu Mar 12 18:55:37 2015
GPGPU-Sim PTX: 15300000 instructions simulated : ctaid=(0,74,0) tid=(15,0,0)
GPGPU-Sim PTX: 15400000 instructions simulated : ctaid=(0,85,0) tid=(15,0,0)
GPGPU-Sim PTX: 15500000 instructions simulated : ctaid=(0,62,0) tid=(143,0,0)
GPGPU-Sim PTX: 15600000 instructions simulated : ctaid=(0,21,0) tid=(47,0,0)
GPGPU-Sim uArch: cycles simulated: 21000  inst.: 15230048 (ipc=725.2) sim_rate=491291 (inst/sec) elapsed = 0:0:00:31 / Thu Mar 12 18:55:38 2015
GPGPU-Sim PTX: 15700000 instructions simulated : ctaid=(0,33,0) tid=(239,0,0)
GPGPU-Sim PTX: 15800000 instructions simulated : ctaid=(0,62,0) tid=(111,0,0)
GPGPU-Sim PTX: 15900000 instructions simulated : ctaid=(0,24,0) tid=(239,0,0)
GPGPU-Sim PTX: 16000000 instructions simulated : ctaid=(0,55,0) tid=(175,0,0)
GPGPU-Sim PTX: 16100000 instructions simulated : ctaid=(0,8,0) tid=(175,0,0)
GPGPU-Sim PTX: 16200000 instructions simulated : ctaid=(0,1,0) tid=(15,0,0)
GPGPU-Sim PTX: 16300000 instructions simulated : ctaid=(0,44,0) tid=(79,0,0)
GPGPU-Sim PTX: 16400000 instructions simulated : ctaid=(0,24,0) tid=(79,0,0)
GPGPU-Sim PTX: 16500000 instructions simulated : ctaid=(0,34,0) tid=(111,0,0)
GPGPU-Sim uArch: cycles simulated: 22000  inst.: 16041568 (ipc=729.2) sim_rate=501299 (inst/sec) elapsed = 0:0:00:32 / Thu Mar 12 18:55:39 2015
GPGPU-Sim PTX: 16600000 instructions simulated : ctaid=(0,18,0) tid=(15,0,0)
GPGPU-Sim PTX: 16700000 instructions simulated : ctaid=(0,79,0) tid=(175,0,0)
GPGPU-Sim PTX: 16800000 instructions simulated : ctaid=(0,50,0) tid=(175,0,0)
GPGPU-Sim PTX: 16900000 instructions simulated : ctaid=(0,29,0) tid=(111,0,0)
GPGPU-Sim uArch: cycles simulated: 22500  inst.: 16445152 (ipc=730.9) sim_rate=498337 (inst/sec) elapsed = 0:0:00:33 / Thu Mar 12 18:55:40 2015
GPGPU-Sim PTX: 17000000 instructions simulated : ctaid=(0,21,0) tid=(47,0,0)
GPGPU-Sim PTX: 17100000 instructions simulated : ctaid=(0,49,0) tid=(111,0,0)
GPGPU-Sim PTX: 17200000 instructions simulated : ctaid=(0,82,0) tid=(239,0,0)
GPGPU-Sim PTX: 17300000 instructions simulated : ctaid=(0,10,0) tid=(79,0,0)
GPGPU-Sim uArch: cycles simulated: 23000  inst.: 16839296 (ipc=732.1) sim_rate=495273 (inst/sec) elapsed = 0:0:00:34 / Thu Mar 12 18:55:41 2015
GPGPU-Sim PTX: 17400000 instructions simulated : ctaid=(0,43,0) tid=(143,0,0)
GPGPU-Sim PTX: 17500000 instructions simulated : ctaid=(0,35,0) tid=(79,0,0)
GPGPU-Sim PTX: 17600000 instructions simulated : ctaid=(0,56,0) tid=(79,0,0)
GPGPU-Sim PTX: 17700000 instructions simulated : ctaid=(0,85,0) tid=(111,0,0)
GPGPU-Sim PTX: 17800000 instructions simulated : ctaid=(0,26,0) tid=(15,0,0)
GPGPU-Sim PTX: 17900000 instructions simulated : ctaid=(0,55,0) tid=(207,0,0)
GPGPU-Sim PTX: 18000000 instructions simulated : ctaid=(0,37,0) tid=(79,0,0)
GPGPU-Sim PTX: 18100000 instructions simulated : ctaid=(0,50,0) tid=(47,0,0)
GPGPU-Sim uArch: cycles simulated: 24000  inst.: 17636160 (ipc=734.8) sim_rate=503890 (inst/sec) elapsed = 0:0:00:35 / Thu Mar 12 18:55:42 2015
GPGPU-Sim PTX: 18200000 instructions simulated : ctaid=(0,7,0) tid=(175,0,0)
GPGPU-Sim PTX: 18300000 instructions simulated : ctaid=(0,21,0) tid=(15,0,0)
GPGPU-Sim PTX: 18400000 instructions simulated : ctaid=(0,62,0) tid=(175,0,0)
GPGPU-Sim PTX: 18500000 instructions simulated : ctaid=(0,4,0) tid=(143,0,0)
GPGPU-Sim uArch: cycles simulated: 24500  inst.: 18046272 (ipc=736.6) sim_rate=501285 (inst/sec) elapsed = 0:0:00:36 / Thu Mar 12 18:55:43 2015
GPGPU-Sim PTX: 18600000 instructions simulated : ctaid=(0,49,0) tid=(111,0,0)
GPGPU-Sim PTX: 18700000 instructions simulated : ctaid=(0,48,0) tid=(207,0,0)
GPGPU-Sim PTX: 18800000 instructions simulated : ctaid=(0,30,0) tid=(111,0,0)
GPGPU-Sim PTX: 18900000 instructions simulated : ctaid=(0,78,0) tid=(47,0,0)
GPGPU-Sim uArch: cycles simulated: 25000  inst.: 18450496 (ipc=738.0) sim_rate=498662 (inst/sec) elapsed = 0:0:00:37 / Thu Mar 12 18:55:44 2015
GPGPU-Sim PTX: 19000000 instructions simulated : ctaid=(0,8,0) tid=(15,0,0)
GPGPU-Sim PTX: 19100000 instructions simulated : ctaid=(0,37,0) tid=(207,0,0)
GPGPU-Sim PTX: 19200000 instructions simulated : ctaid=(0,7,0) tid=(47,0,0)
GPGPU-Sim PTX: 19300000 instructions simulated : ctaid=(0,42,0) tid=(79,0,0)
GPGPU-Sim PTX: 19400000 instructions simulated : ctaid=(0,81,0) tid=(79,0,0)
GPGPU-Sim PTX: 19500000 instructions simulated : ctaid=(0,76,0) tid=(111,0,0)
GPGPU-Sim PTX: 19600000 instructions simulated : ctaid=(0,48,0) tid=(143,0,0)
GPGPU-Sim PTX: 19700000 instructions simulated : ctaid=(0,71,0) tid=(239,0,0)
GPGPU-Sim PTX: 19800000 instructions simulated : ctaid=(0,22,0) tid=(175,0,0)
GPGPU-Sim uArch: cycles simulated: 26000  inst.: 19257088 (ipc=740.7) sim_rate=506765 (inst/sec) elapsed = 0:0:00:38 / Thu Mar 12 18:55:45 2015
GPGPU-Sim PTX: 19900000 instructions simulated : ctaid=(0,70,0) tid=(15,0,0)
GPGPU-Sim PTX: 20000000 instructions simulated : ctaid=(0,5,0) tid=(143,0,0)
GPGPU-Sim PTX: 20100000 instructions simulated : ctaid=(0,45,0) tid=(175,0,0)
GPGPU-Sim PTX: 20200000 instructions simulated : ctaid=(0,50,0) tid=(111,0,0)
GPGPU-Sim uArch: cycles simulated: 26500  inst.: 19652704 (ipc=741.6) sim_rate=503915 (inst/sec) elapsed = 0:0:00:39 / Thu Mar 12 18:55:46 2015
GPGPU-Sim PTX: 20300000 instructions simulated : ctaid=(0,84,0) tid=(79,0,0)
GPGPU-Sim PTX: 20400000 instructions simulated : ctaid=(0,16,0) tid=(207,0,0)
GPGPU-Sim PTX: 20500000 instructions simulated : ctaid=(0,12,0) tid=(79,0,0)
GPGPU-Sim uArch: Shader 2 finished CTA #0 (26866,0), 5 CTAs running
GPGPU-Sim uArch: core:  2, cta: 0 initialized @(26867,0)
GPGPU-Sim uArch: Shader 1 finished CTA #0 (26888,0), 5 CTAs running
GPGPU-Sim uArch: core:  1, cta: 0 initialized @(26889,0)
GPGPU-Sim PTX: 20600000 instructions simulated : ctaid=(0,8,0) tid=(159,0,0)
GPGPU-Sim uArch: cycles simulated: 27000  inst.: 20051744 (ipc=742.7) sim_rate=501293 (inst/sec) elapsed = 0:0:00:40 / Thu Mar 12 18:55:47 2015
GPGPU-Sim PTX: 20700000 instructions simulated : ctaid=(0,16,0) tid=(23,0,0)
GPGPU-Sim PTX: 20800000 instructions simulated : ctaid=(0,74,0) tid=(31,0,0)
GPGPU-Sim PTX: 20900000 instructions simulated : ctaid=(0,56,0) tid=(159,0,0)
GPGPU-Sim PTX: 21000000 instructions simulated : ctaid=(0,31,0) tid=(95,0,0)
GPGPU-Sim PTX: 21100000 instructions simulated : ctaid=(0,63,0) tid=(63,0,0)
GPGPU-Sim PTX: 21200000 instructions simulated : ctaid=(0,62,0) tid=(63,0,0)
GPGPU-Sim PTX: 21300000 instructions simulated : ctaid=(0,73,0) tid=(159,0,0)
GPGPU-Sim PTX: 21400000 instructions simulated : ctaid=(0,50,0) tid=(223,0,0)
GPGPU-Sim uArch: cycles simulated: 28000  inst.: 20861472 (ipc=745.1) sim_rate=508816 (inst/sec) elapsed = 0:0:00:41 / Thu Mar 12 18:55:48 2015
GPGPU-Sim PTX: 21500000 instructions simulated : ctaid=(0,30,0) tid=(63,0,0)
GPGPU-Sim uArch: Shader 3 finished CTA #0 (28143,0), 5 CTAs running
GPGPU-Sim uArch: core:  3, cta: 0 initialized @(28144,0)
GPGPU-Sim PTX: 21600000 instructions simulated : ctaid=(0,40,0) tid=(159,0,0)
GPGPU-Sim uArch: Shader 2 finished CTA #1 (28264,0), 5 CTAs running
GPGPU-Sim uArch: core:  2, cta: 1 initialized @(28265,0)
GPGPU-Sim PTX: 21700000 instructions simulated : ctaid=(0,8,0) tid=(143,0,0)
GPGPU-Sim PTX: 21800000 instructions simulated : ctaid=(0,37,0) tid=(119,0,0)
GPGPU-Sim uArch: cycles simulated: 28500  inst.: 21265640 (ipc=746.2) sim_rate=506324 (inst/sec) elapsed = 0:0:00:42 / Thu Mar 12 18:55:49 2015
GPGPU-Sim uArch: Shader 12 finished CTA #0 (28522,0), 5 CTAs running
GPGPU-Sim uArch: core: 12, cta: 0 initialized @(28523,0)
GPGPU-Sim PTX: 21900000 instructions simulated : ctaid=(0,73,0) tid=(215,0,0)
GPGPU-Sim uArch: Shader 5 finished CTA #0 (28598,0), 5 CTAs running
GPGPU-Sim uArch: core:  5, cta: 0 initialized @(28599,0)
GPGPU-Sim PTX: 22000000 instructions simulated : ctaid=(0,87,0) tid=(15,0,0)
GPGPU-Sim uArch: Shader 14 finished CTA #0 (28701,0), 5 CTAs running
GPGPU-Sim uArch: core: 14, cta: 0 initialized @(28702,0)
GPGPU-Sim PTX: 22100000 instructions simulated : ctaid=(0,81,0) tid=(199,0,0)
GPGPU-Sim uArch: Shader 5 finished CTA #1 (28833,0), 5 CTAs running
GPGPU-Sim uArch: core:  5, cta: 1 initialized @(28834,0)
GPGPU-Sim uArch: Shader 10 finished CTA #0 (28838,0), 5 CTAs running
GPGPU-Sim uArch: core: 10, cta: 0 initialized @(28839,0)
GPGPU-Sim uArch: Shader 12 finished CTA #1 (28840,0), 5 CTAs running
GPGPU-Sim uArch: core: 12, cta: 1 initialized @(28841,0)
GPGPU-Sim uArch: Shader 7 finished CTA #0 (28888,0), 5 CTAs running
GPGPU-Sim uArch: core:  7, cta: 0 initialized @(28889,0)
GPGPU-Sim PTX: 22200000 instructions simulated : ctaid=(0,49,0) tid=(207,0,0)
GPGPU-Sim uArch: Shader 8 finished CTA #0 (28908,0), 5 CTAs running
GPGPU-Sim uArch: core:  8, cta: 0 initialized @(28909,0)
GPGPU-Sim uArch: Shader 9 finished CTA #0 (28951,0), 5 CTAs running
GPGPU-Sim uArch: core:  9, cta: 0 initialized @(28952,0)
GPGPU-Sim uArch: cycles simulated: 29000  inst.: 21665936 (ipc=747.1) sim_rate=503858 (inst/sec) elapsed = 0:0:00:43 / Thu Mar 12 18:55:50 2015
GPGPU-Sim uArch: Shader 0 finished CTA #0 (29015,0), 5 CTAs running
GPGPU-Sim uArch: core:  0, cta: 0 initialized @(29016,0)
GPGPU-Sim PTX: 22300000 instructions simulated : ctaid=(0,67,0) tid=(159,0,0)
GPGPU-Sim uArch: Shader 14 finished CTA #1 (29032,0), 5 CTAs running
GPGPU-Sim uArch: core: 14, cta: 1 initialized @(29033,0)
GPGPU-Sim uArch: Shader 4 finished CTA #0 (29068,0), 5 CTAs running
GPGPU-Sim uArch: core:  4, cta: 0 initialized @(29069,0)
GPGPU-Sim uArch: Shader 10 finished CTA #1 (29092,0), 5 CTAs running
GPGPU-Sim uArch: core: 10, cta: 1 initialized @(29093,0)
GPGPU-Sim uArch: Shader 4 finished CTA #1 (29107,0), 5 CTAs running
GPGPU-Sim uArch: core:  4, cta: 1 initialized @(29108,0)
GPGPU-Sim PTX: 22400000 instructions simulated : ctaid=(0,41,0) tid=(111,0,0)
GPGPU-Sim uArch: Shader 2 finished CTA #2 (29217,0), 5 CTAs running
GPGPU-Sim uArch: core:  2, cta: 2 initialized @(29218,0)
GPGPU-Sim uArch: Shader 6 finished CTA #0 (29262,0), 5 CTAs running
GPGPU-Sim uArch: Shader 8 finished CTA #1 (29262,0), 5 CTAs running
GPGPU-Sim uArch: core:  6, cta: 0 initialized @(29263,0)
GPGPU-Sim uArch: core:  8, cta: 1 initialized @(29263,0)
GPGPU-Sim PTX: 22500000 instructions simulated : ctaid=(0,51,0) tid=(175,0,0)
GPGPU-Sim uArch: Shader 1 finished CTA #1 (29302,0), 5 CTAs running
GPGPU-Sim uArch: core:  1, cta: 1 initialized @(29303,0)
GPGPU-Sim uArch: Shader 3 finished CTA #1 (29324,0), 5 CTAs running
GPGPU-Sim uArch: core:  3, cta: 1 initialized @(29325,0)
GPGPU-Sim uArch: Shader 9 finished CTA #1 (29380,0), 5 CTAs running
GPGPU-Sim uArch: core:  9, cta: 1 initialized @(29381,0)
GPGPU-Sim PTX: 22600000 instructions simulated : ctaid=(0,87,0) tid=(31,0,0)
GPGPU-Sim uArch: Shader 5 finished CTA #2 (29402,0), 5 CTAs running
GPGPU-Sim uArch: core:  5, cta: 2 initialized @(29403,0)
GPGPU-Sim uArch: Shader 13 finished CTA #0 (29421,0), 5 CTAs running
GPGPU-Sim uArch: core: 13, cta: 0 initialized @(29422,0)
GPGPU-Sim uArch: Shader 11 finished CTA #0 (29433,0), 5 CTAs running
GPGPU-Sim uArch: core: 11, cta: 0 initialized @(29434,0)
GPGPU-Sim uArch: Shader 7 finished CTA #1 (29456,0), 5 CTAs running
GPGPU-Sim uArch: core:  7, cta: 1 initialized @(29457,0)
GPGPU-Sim uArch: cycles simulated: 29500  inst.: 22061640 (ipc=747.9) sim_rate=501400 (inst/sec) elapsed = 0:0:00:44 / Thu Mar 12 18:55:51 2015
GPGPU-Sim PTX: 22700000 instructions simulated : ctaid=(0,87,0) tid=(247,0,0)
GPGPU-Sim uArch: Shader 11 finished CTA #1 (29609,0), 5 CTAs running
GPGPU-Sim uArch: core: 11, cta: 1 initialized @(29610,0)
GPGPU-Sim PTX: 22800000 instructions simulated : ctaid=(0,56,0) tid=(239,0,0)
GPGPU-Sim uArch: Shader 14 finished CTA #2 (29632,0), 5 CTAs running
GPGPU-Sim uArch: core: 14, cta: 2 initialized @(29633,0)
GPGPU-Sim uArch: Shader 7 finished CTA #2 (29644,0), 5 CTAs running
GPGPU-Sim uArch: core:  7, cta: 2 initialized @(29645,0)
GPGPU-Sim uArch: Shader 6 finished CTA #1 (29673,0), 5 CTAs running
GPGPU-Sim uArch: core:  6, cta: 1 initialized @(29674,0)
GPGPU-Sim uArch: Shader 10 finished CTA #2 (29751,0), 5 CTAs running
GPGPU-Sim uArch: core: 10, cta: 2 initialized @(29752,0)
GPGPU-Sim PTX: 22900000 instructions simulated : ctaid=(0,117,0) tid=(15,0,0)
GPGPU-Sim uArch: Shader 3 finished CTA #2 (29778,0), 5 CTAs running
GPGPU-Sim uArch: core:  3, cta: 2 initialized @(29779,0)
GPGPU-Sim uArch: Shader 4 finished CTA #2 (29864,0), 5 CTAs running
GPGPU-Sim uArch: core:  4, cta: 2 initialized @(29865,0)
GPGPU-Sim PTX: 23000000 instructions simulated : ctaid=(0,47,0) tid=(39,0,0)
GPGPU-Sim uArch: Shader 0 finished CTA #1 (29891,0), 5 CTAs running
GPGPU-Sim uArch: core:  0, cta: 1 initialized @(29892,0)
GPGPU-Sim uArch: Shader 13 finished CTA #1 (29895,0), 5 CTAs running
GPGPU-Sim uArch: core: 13, cta: 1 initialized @(29896,0)
GPGPU-Sim uArch: Shader 11 finished CTA #2 (29923,0), 5 CTAs running
GPGPU-Sim uArch: core: 11, cta: 2 initialized @(29924,0)
GPGPU-Sim uArch: Shader 1 finished CTA #2 (29982,0), 5 CTAs running
GPGPU-Sim PTX: 23100000 instructions simulated : ctaid=(0,45,0) tid=(207,0,0)
GPGPU-Sim uArch: cycles simulated: 30000  inst.: 22463056 (ipc=748.8) sim_rate=499179 (inst/sec) elapsed = 0:0:00:45 / Thu Mar 12 18:55:52 2015
GPGPU-Sim uArch: Shader 8 finished CTA #2 (30003,0), 5 CTAs running
GPGPU-Sim uArch: Shader 12 finished CTA #2 (30066,0), 5 CTAs running
GPGPU-Sim uArch: Shader 9 finished CTA #2 (30096,0), 5 CTAs running
GPGPU-Sim PTX: 23200000 instructions simulated : ctaid=(0,73,0) tid=(215,0,0)
GPGPU-Sim uArch: Shader 2 finished CTA #3 (30141,0), 5 CTAs running
GPGPU-Sim uArch: Shader 4 finished CTA #3 (30208,0), 5 CTAs running
GPGPU-Sim PTX: 23300000 instructions simulated : ctaid=(0,122,0) tid=(167,0,0)
GPGPU-Sim uArch: Shader 0 finished CTA #2 (30274,0), 5 CTAs running
GPGPU-Sim uArch: Shader 6 finished CTA #2 (30282,0), 5 CTAs running
GPGPU-Sim uArch: Shader 13 finished CTA #2 (30290,0), 5 CTAs running
GPGPU-Sim PTX: 23400000 instructions simulated : ctaid=(0,111,0) tid=(63,0,0)
GPGPU-Sim PTX: 23500000 instructions simulated : ctaid=(0,104,0) tid=(127,0,0)
GPGPU-Sim uArch: Shader 8 finished CTA #3 (30468,0), 4 CTAs running
GPGPU-Sim PTX: 23600000 instructions simulated : ctaid=(0,92,0) tid=(95,0,0)
GPGPU-Sim uArch: Shader 1 finished CTA #3 (30605,0), 4 CTAs running
GPGPU-Sim uArch: Shader 14 finished CTA #3 (30673,0), 5 CTAs running
GPGPU-Sim PTX: 23700000 instructions simulated : ctaid=(0,72,0) tid=(191,0,0)
GPGPU-Sim uArch: Shader 11 finished CTA #3 (30709,0), 5 CTAs running
GPGPU-Sim uArch: Shader 12 finished CTA #3 (30713,0), 4 CTAs running
GPGPU-Sim uArch: Shader 5 finished CTA #3 (30785,0), 5 CTAs running
GPGPU-Sim PTX: 23800000 instructions simulated : ctaid=(0,88,0) tid=(127,0,0)
GPGPU-Sim uArch: Shader 7 finished CTA #3 (30849,0), 5 CTAs running
GPGPU-Sim uArch: Shader 9 finished CTA #3 (30858,0), 4 CTAs running
GPGPU-Sim uArch: Shader 0 finished CTA #3 (30883,0), 4 CTAs running
GPGPU-Sim PTX: 23900000 instructions simulated : ctaid=(0,77,0) tid=(63,0,0)
GPGPU-Sim uArch: Shader 6 finished CTA #3 (30962,0), 4 CTAs running
GPGPU-Sim uArch: Shader 13 finished CTA #3 (30965,0), 4 CTAs running
GPGPU-Sim uArch: Shader 3 finished CTA #3 (30998,0), 5 CTAs running
GPGPU-Sim uArch: cycles simulated: 31000  inst.: 23286752 (ipc=751.2) sim_rate=506233 (inst/sec) elapsed = 0:0:00:46 / Thu Mar 12 18:55:53 2015
GPGPU-Sim PTX: 24000000 instructions simulated : ctaid=(0,70,0) tid=(159,0,0)
GPGPU-Sim uArch: Shader 10 finished CTA #3 (31076,0), 5 CTAs running
GPGPU-Sim PTX: 24100000 instructions simulated : ctaid=(0,77,0) tid=(31,0,0)
GPGPU-Sim PTX: 24200000 instructions simulated : ctaid=(0,100,0) tid=(127,0,0)
GPGPU-Sim PTX: 24300000 instructions simulated : ctaid=(0,76,0) tid=(159,0,0)
GPGPU-Sim uArch: cycles simulated: 31500  inst.: 23696736 (ipc=752.3) sim_rate=504185 (inst/sec) elapsed = 0:0:00:47 / Thu Mar 12 18:55:54 2015
GPGPU-Sim PTX: 24400000 instructions simulated : ctaid=(0,103,0) tid=(159,0,0)
GPGPU-Sim uArch: Shader 1 finished CTA #4 (31551,0), 3 CTAs running
GPGPU-Sim PTX: 24500000 instructions simulated : ctaid=(0,61,0) tid=(255,0,0)
GPGPU-Sim uArch: Shader 13 finished CTA #4 (31754,0), 3 CTAs running
GPGPU-Sim PTX: 24600000 instructions simulated : ctaid=(0,112,0) tid=(223,0,0)
GPGPU-Sim uArch: Shader 0 finished CTA #4 (31799,0), 3 CTAs running
GPGPU-Sim uArch: Shader 6 finished CTA #4 (31805,0), 3 CTAs running
GPGPU-Sim PTX: 24700000 instructions simulated : ctaid=(0,82,0) tid=(31,0,0)
GPGPU-Sim uArch: Shader 8 finished CTA #4 (31900,0), 3 CTAs running
GPGPU-Sim uArch: Shader 9 finished CTA #4 (31982,0), 3 CTAs running
GPGPU-Sim uArch: cycles simulated: 32000  inst.: 24102016 (ipc=753.2) sim_rate=502125 (inst/sec) elapsed = 0:0:00:48 / Thu Mar 12 18:55:55 2015
GPGPU-Sim PTX: 24800000 instructions simulated : ctaid=(0,80,0) tid=(127,0,0)
GPGPU-Sim uArch: Shader 11 finished CTA #4 (32073,0), 4 CTAs running
GPGPU-Sim PTX: 24900000 instructions simulated : ctaid=(0,87,0) tid=(127,0,0)
GPGPU-Sim uArch: Shader 12 finished CTA #4 (32128,0), 3 CTAs running
GPGPU-Sim uArch: Shader 4 finished CTA #4 (32152,0), 4 CTAs running
GPGPU-Sim uArch: Shader 14 finished CTA #4 (32171,0), 4 CTAs running
GPGPU-Sim PTX: 25000000 instructions simulated : ctaid=(0,101,0) tid=(223,0,0)
GPGPU-Sim uArch: Shader 7 finished CTA #4 (32256,0), 4 CTAs running
GPGPU-Sim uArch: Shader 5 finished CTA #4 (32330,0), 4 CTAs running
GPGPU-Sim PTX: 25100000 instructions simulated : ctaid=(0,85,0) tid=(223,0,0)
GPGPU-Sim uArch: Shader 2 finished CTA #4 (32412,0), 4 CTAs running
GPGPU-Sim PTX: 25200000 instructions simulated : ctaid=(0,105,0) tid=(63,0,0)
GPGPU-Sim uArch: cycles simulated: 32500  inst.: 24496896 (ipc=753.8) sim_rate=499936 (inst/sec) elapsed = 0:0:00:49 / Thu Mar 12 18:55:56 2015
GPGPU-Sim uArch: Shader 3 finished CTA #4 (32522,0), 4 CTAs running
GPGPU-Sim PTX: 25300000 instructions simulated : ctaid=(0,98,0) tid=(63,0,0)
GPGPU-Sim PTX: 25400000 instructions simulated : ctaid=(0,113,0) tid=(223,0,0)
GPGPU-Sim PTX: 25500000 instructions simulated : ctaid=(0,87,0) tid=(63,0,0)
GPGPU-Sim PTX: 25600000 instructions simulated : ctaid=(0,126,0) tid=(159,0,0)
GPGPU-Sim uArch: cycles simulated: 33000  inst.: 24892768 (ipc=754.3) sim_rate=497855 (inst/sec) elapsed = 0:0:00:50 / Thu Mar 12 18:55:57 2015
GPGPU-Sim uArch: Shader 10 finished CTA #4 (33080,0), 4 CTAs running
GPGPU-Sim PTX: 25700000 instructions simulated : ctaid=(0,118,0) tid=(127,0,0)
GPGPU-Sim PTX: 25800000 instructions simulated : ctaid=(0,112,0) tid=(191,0,0)
GPGPU-Sim PTX: 25900000 instructions simulated : ctaid=(0,116,0) tid=(159,0,0)
GPGPU-Sim PTX: 26000000 instructions simulated : ctaid=(0,100,0) tid=(191,0,0)
GPGPU-Sim uArch: Shader 1 finished CTA #5 (33588,0), 2 CTAs running
GPGPU-Sim PTX: 26100000 instructions simulated : ctaid=(0,100,0) tid=(63,0,0)
GPGPU-Sim PTX: 26200000 instructions simulated : ctaid=(0,108,0) tid=(191,0,0)
GPGPU-Sim uArch: Shader 0 finished CTA #5 (33795,0), 2 CTAs running
GPGPU-Sim PTX: 26300000 instructions simulated : ctaid=(0,125,0) tid=(255,0,0)
GPGPU-Sim uArch: Shader 13 finished CTA #5 (33854,0), 2 CTAs running
GPGPU-Sim uArch: Shader 6 finished CTA #5 (33871,0), 2 CTAs running
GPGPU-Sim uArch: Shader 8 finished CTA #5 (33914,0), 2 CTAs running
GPGPU-Sim PTX: 26400000 instructions simulated : ctaid=(0,76,0) tid=(191,0,0)
GPGPU-Sim uArch: cycles simulated: 34000  inst.: 25669056 (ipc=755.0) sim_rate=503314 (inst/sec) elapsed = 0:0:00:51 / Thu Mar 12 18:55:58 2015
GPGPU-Sim PTX: 26500000 instructions simulated : ctaid=(0,112,0) tid=(223,0,0)
GPGPU-Sim uArch: Shader 12 finished CTA #5 (34129,0), 2 CTAs running
GPGPU-Sim PTX: 26600000 instructions simulated : ctaid=(0,77,0) tid=(127,0,0)
GPGPU-Sim uArch: Shader 9 finished CTA #5 (34286,0), 2 CTAs running
GPGPU-Sim PTX: 26700000 instructions simulated : ctaid=(0,116,0) tid=(127,0,0)
GPGPU-Sim PTX: 26800000 instructions simulated : ctaid=(0,113,0) tid=(95,0,0)
GPGPU-Sim uArch: cycles simulated: 34500  inst.: 26059392 (ipc=755.3) sim_rate=501142 (inst/sec) elapsed = 0:0:00:52 / Thu Mar 12 18:55:59 2015
GPGPU-Sim PTX: 26900000 instructions simulated : ctaid=(0,121,0) tid=(223,0,0)
GPGPU-Sim PTX: 27000000 instructions simulated : ctaid=(0,96,0) tid=(95,0,0)
GPGPU-Sim uArch: Shader 4 finished CTA #5 (34850,0), 3 CTAs running
GPGPU-Sim PTX: 27100000 instructions simulated : ctaid=(0,90,0) tid=(31,0,0)
GPGPU-Sim uArch: Shader 7 finished CTA #5 (34890,0), 3 CTAs running
GPGPU-Sim uArch: Shader 14 finished CTA #5 (34963,0), 3 CTAs running
GPGPU-Sim uArch: cycles simulated: 35000  inst.: 26419776 (ipc=754.9) sim_rate=498486 (inst/sec) elapsed = 0:0:00:53 / Thu Mar 12 18:56:00 2015
GPGPU-Sim PTX: 27200000 instructions simulated : ctaid=(0,93,0) tid=(159,0,0)
GPGPU-Sim uArch: Shader 5 finished CTA #5 (35060,0), 3 CTAs running
GPGPU-Sim uArch: Shader 11 finished CTA #5 (35148,0), 3 CTAs running
GPGPU-Sim uArch: Shader 3 finished CTA #5 (35153,0), 3 CTAs running
GPGPU-Sim PTX: 27300000 instructions simulated : ctaid=(0,116,0) tid=(127,0,0)
GPGPU-Sim PTX: 27400000 instructions simulated : ctaid=(0,105,0) tid=(191,0,0)
GPGPU-Sim uArch: Shader 10 finished CTA #5 (35316,0), 3 CTAs running
GPGPU-Sim uArch: Shader 2 finished CTA #5 (35317,0), 3 CTAs running
GPGPU-Sim PTX: 27500000 instructions simulated : ctaid=(0,107,0) tid=(191,0,0)
GPGPU-Sim PTX: 27600000 instructions simulated : ctaid=(0,115,0) tid=(223,0,0)
GPGPU-Sim PTX: 27700000 instructions simulated : ctaid=(0,104,0) tid=(63,0,0)
GPGPU-Sim PTX: 27800000 instructions simulated : ctaid=(0,100,0) tid=(63,0,0)
GPGPU-Sim PTX: 27900000 instructions simulated : ctaid=(0,107,0) tid=(63,0,0)
GPGPU-Sim uArch: cycles simulated: 36000  inst.: 27193536 (ipc=755.4) sim_rate=503584 (inst/sec) elapsed = 0:0:00:54 / Thu Mar 12 18:56:01 2015
GPGPU-Sim PTX: 28000000 instructions simulated : ctaid=(0,103,0) tid=(63,0,0)
GPGPU-Sim PTX: 28100000 instructions simulated : ctaid=(0,90,0) tid=(255,0,0)
GPGPU-Sim PTX: 28200000 instructions simulated : ctaid=(0,95,0) tid=(95,0,0)
GPGPU-Sim PTX: 28300000 instructions simulated : ctaid=(0,94,0) tid=(127,0,0)
GPGPU-Sim uArch: cycles simulated: 36500  inst.: 27549088 (ipc=754.8) sim_rate=500892 (inst/sec) elapsed = 0:0:00:55 / Thu Mar 12 18:56:02 2015
GPGPU-Sim PTX: 28400000 instructions simulated : ctaid=(0,98,0) tid=(159,0,0)
GPGPU-Sim PTX: 28500000 instructions simulated : ctaid=(0,117,0) tid=(223,0,0)
GPGPU-Sim PTX: 28600000 instructions simulated : ctaid=(0,98,0) tid=(95,0,0)
GPGPU-Sim PTX: 28700000 instructions simulated : ctaid=(0,100,0) tid=(63,0,0)
GPGPU-Sim uArch: cycles simulated: 37000  inst.: 27936608 (ipc=755.0) sim_rate=498868 (inst/sec) elapsed = 0:0:00:56 / Thu Mar 12 18:56:03 2015
GPGPU-Sim PTX: 28800000 instructions simulated : ctaid=(0,120,0) tid=(31,0,0)
GPGPU-Sim PTX: 28900000 instructions simulated : ctaid=(0,115,0) tid=(127,0,0)
GPGPU-Sim PTX: 29000000 instructions simulated : ctaid=(0,122,0) tid=(191,0,0)
GPGPU-Sim PTX: 29100000 instructions simulated : ctaid=(0,109,0) tid=(255,0,0)
GPGPU-Sim PTX: 29200000 instructions simulated : ctaid=(0,107,0) tid=(127,0,0)
GPGPU-Sim PTX: 29300000 instructions simulated : ctaid=(0,93,0) tid=(95,0,0)
GPGPU-Sim PTX: 29400000 instructions simulated : ctaid=(0,110,0) tid=(223,0,0)
GPGPU-Sim PTX: 29500000 instructions simulated : ctaid=(0,100,0) tid=(191,0,0)
GPGPU-Sim uArch: cycles simulated: 38000  inst.: 28698336 (ipc=755.2) sim_rate=503479 (inst/sec) elapsed = 0:0:00:57 / Thu Mar 12 18:56:04 2015
GPGPU-Sim PTX: 29600000 instructions simulated : ctaid=(0,93,0) tid=(127,0,0)
GPGPU-Sim PTX: 29700000 instructions simulated : ctaid=(0,126,0) tid=(159,0,0)
GPGPU-Sim PTX: 29800000 instructions simulated : ctaid=(0,103,0) tid=(255,0,0)
GPGPU-Sim PTX: 29900000 instructions simulated : ctaid=(0,124,0) tid=(31,0,0)
GPGPU-Sim uArch: cycles simulated: 38500  inst.: 29070848 (ipc=755.1) sim_rate=501221 (inst/sec) elapsed = 0:0:00:58 / Thu Mar 12 18:56:05 2015
GPGPU-Sim PTX: 30000000 instructions simulated : ctaid=(0,109,0) tid=(127,0,0)
GPGPU-Sim PTX: 30100000 instructions simulated : ctaid=(0,120,0) tid=(191,0,0)
GPGPU-Sim PTX: 30200000 instructions simulated : ctaid=(0,116,0) tid=(159,0,0)
GPGPU-Sim PTX: 30300000 instructions simulated : ctaid=(0,118,0) tid=(191,0,0)
GPGPU-Sim PTX: 30400000 instructions simulated : ctaid=(0,99,0) tid=(159,0,0)
GPGPU-Sim PTX: 30500000 instructions simulated : ctaid=(0,100,0) tid=(95,0,0)
GPGPU-Sim PTX: 30600000 instructions simulated : ctaid=(0,103,0) tid=(127,0,0)
GPGPU-Sim PTX: 30700000 instructions simulated : ctaid=(0,120,0) tid=(127,0,0)
GPGPU-Sim uArch: cycles simulated: 39500  inst.: 29848000 (ipc=755.6) sim_rate=505898 (inst/sec) elapsed = 0:0:00:59 / Thu Mar 12 18:56:06 2015
GPGPU-Sim PTX: 30800000 instructions simulated : ctaid=(0,94,0) tid=(191,0,0)
GPGPU-Sim PTX: 30900000 instructions simulated : ctaid=(0,120,0) tid=(255,0,0)
GPGPU-Sim PTX: 31000000 instructions simulated : ctaid=(0,123,0) tid=(31,0,0)
GPGPU-Sim uArch: cycles simulated: 40000  inst.: 30232896 (ipc=755.8) sim_rate=503881 (inst/sec) elapsed = 0:0:01:00 / Thu Mar 12 18:56:07 2015
GPGPU-Sim PTX: 31100000 instructions simulated : ctaid=(0,90,0) tid=(191,0,0)
GPGPU-Sim PTX: 31200000 instructions simulated : ctaid=(0,118,0) tid=(95,0,0)
GPGPU-Sim PTX: 31300000 instructions simulated : ctaid=(0,107,0) tid=(95,0,0)
GPGPU-Sim PTX: 31400000 instructions simulated : ctaid=(0,101,0) tid=(95,0,0)
GPGPU-Sim uArch: cycles simulated: 40500  inst.: 30609184 (ipc=755.8) sim_rate=501789 (inst/sec) elapsed = 0:0:01:01 / Thu Mar 12 18:56:08 2015
GPGPU-Sim PTX: 31500000 instructions simulated : ctaid=(0,115,0) tid=(255,0,0)
GPGPU-Sim PTX: 31600000 instructions simulated : ctaid=(0,107,0) tid=(191,0,0)
GPGPU-Sim PTX: 31700000 instructions simulated : ctaid=(0,113,0) tid=(63,0,0)
GPGPU-Sim PTX: 31800000 instructions simulated : ctaid=(0,92,0) tid=(127,0,0)
GPGPU-Sim PTX: 31900000 instructions simulated : ctaid=(0,120,0) tid=(159,0,0)
GPGPU-Sim uArch: Shader 1 finished CTA #0 (41039,0), 1 CTAs running
GPGPU-Sim PTX: 32000000 instructions simulated : ctaid=(0,125,0) tid=(63,0,0)
GPGPU-Sim PTX: 32100000 instructions simulated : ctaid=(0,110,0) tid=(255,0,0)
GPGPU-Sim uArch: Shader 8 finished CTA #0 (41429,0), 1 CTAs running
GPGPU-Sim PTX: 32200000 instructions simulated : ctaid=(0,124,0) tid=(255,0,0)
GPGPU-Sim uArch: cycles simulated: 41500  inst.: 31341856 (ipc=755.2) sim_rate=505513 (inst/sec) elapsed = 0:0:01:02 / Thu Mar 12 18:56:09 2015
GPGPU-Sim uArch: Shader 9 finished CTA #0 (41577,0), 1 CTAs running
GPGPU-Sim PTX: 32300000 instructions simulated : ctaid=(0,106,0) tid=(95,0,0)
GPGPU-Sim uArch: Shader 0 finished CTA #0 (41585,0), 1 CTAs running
GPGPU-Sim uArch: Shader 6 finished CTA #0 (41689,0), 1 CTAs running
GPGPU-Sim PTX: 32400000 instructions simulated : ctaid=(0,125,0) tid=(31,0,0)
GPGPU-Sim uArch: Shader 12 finished CTA #0 (41747,0), 1 CTAs running
GPGPU-Sim uArch: Shader 13 finished CTA #0 (41749,0), 1 CTAs running
GPGPU-Sim PTX: 32500000 instructions simulated : ctaid=(0,105,0) tid=(31,0,0)
GPGPU-Sim uArch: cycles simulated: 42000  inst.: 31684128 (ipc=754.4) sim_rate=502922 (inst/sec) elapsed = 0:0:01:03 / Thu Mar 12 18:56:10 2015
GPGPU-Sim PTX: 32600000 instructions simulated : ctaid=(0,95,0) tid=(159,0,0)
GPGPU-Sim PTX: 32700000 instructions simulated : ctaid=(0,113,0) tid=(63,0,0)
GPGPU-Sim PTX: 32800000 instructions simulated : ctaid=(0,105,0) tid=(159,0,0)
GPGPU-Sim PTX: 32900000 instructions simulated : ctaid=(0,126,0) tid=(31,0,0)
GPGPU-Sim PTX: 33000000 instructions simulated : ctaid=(0,120,0) tid=(223,0,0)
GPGPU-Sim PTX: 33100000 instructions simulated : ctaid=(0,116,0) tid=(63,0,0)
GPGPU-Sim uArch: Shader 8 finished CTA #1 (42881,0), 0 CTAs running
GPGPU-Sim uArch: Shader 8 empty (release kernel 1 '_Z10testKernelPfS_S_jjjj').
GPGPU-Sim PTX: 33200000 instructions simulated : ctaid=(0,118,0) tid=(255,0,0)
GPGPU-Sim uArch: Shader 1 finished CTA #1 (42972,0), 0 CTAs running
GPGPU-Sim uArch: Shader 1 empty (release kernel 1 '_Z10testKernelPfS_S_jjjj').
GPGPU-Sim uArch: cycles simulated: 43000  inst.: 32304288 (ipc=751.3) sim_rate=504754 (inst/sec) elapsed = 0:0:01:04 / Thu Mar 12 18:56:11 2015
GPGPU-Sim uArch: Shader 12 finished CTA #1 (43095,0), 0 CTAs running
GPGPU-Sim uArch: Shader 12 empty (release kernel 1 '_Z10testKernelPfS_S_jjjj').
GPGPU-Sim PTX: 33300000 instructions simulated : ctaid=(0,119,0) tid=(31,0,0)
GPGPU-Sim uArch: Shader 0 finished CTA #1 (43279,0), 0 CTAs running
GPGPU-Sim uArch: Shader 0 empty (release kernel 1 '_Z10testKernelPfS_S_jjjj').
GPGPU-Sim PTX: 33400000 instructions simulated : ctaid=(0,108,0) tid=(31,0,0)
GPGPU-Sim uArch: Shader 6 finished CTA #1 (43419,0), 0 CTAs running
GPGPU-Sim uArch: Shader 6 empty (release kernel 1 '_Z10testKernelPfS_S_jjjj').
GPGPU-Sim uArch: Shader 13 finished CTA #1 (43426,0), 0 CTAs running
GPGPU-Sim uArch: Shader 13 empty (release kernel 1 '_Z10testKernelPfS_S_jjjj').
GPGPU-Sim uArch: Shader 9 finished CTA #1 (43442,0), 0 CTAs running
GPGPU-Sim uArch: Shader 9 empty (release kernel 1 '_Z10testKernelPfS_S_jjjj').
GPGPU-Sim uArch: cycles simulated: 43500  inst.: 32530592 (ipc=747.8) sim_rate=500470 (inst/sec) elapsed = 0:0:01:05 / Thu Mar 12 18:56:12 2015
GPGPU-Sim PTX: 33500000 instructions simulated : ctaid=(0,93,0) tid=(159,0,0)
GPGPU-Sim uArch: Shader 2 finished CTA #0 (43634,0), 2 CTAs running
GPGPU-Sim PTX: 33600000 instructions simulated : ctaid=(0,116,0) tid=(95,0,0)
GPGPU-Sim uArch: Shader 3 finished CTA #0 (43959,0), 2 CTAs running
GPGPU-Sim uArch: Shader 5 finished CTA #0 (43984,0), 2 CTAs running
GPGPU-Sim PTX: 33700000 instructions simulated : ctaid=(0,127,0) tid=(255,0,0)
GPGPU-Sim uArch: Shader 14 finished CTA #0 (44068,0), 2 CTAs running
GPGPU-Sim PTX: 33800000 instructions simulated : ctaid=(0,120,0) tid=(255,0,0)
GPGPU-Sim uArch: Shader 11 finished CTA #0 (44413,0), 2 CTAs running
GPGPU-Sim PTX: 33900000 instructions simulated : ctaid=(0,93,0) tid=(31,0,0)
GPGPU-Sim uArch: Shader 10 finished CTA #0 (44596,0), 2 CTAs running
GPGPU-Sim uArch: Shader 7 finished CTA #0 (44635,0), 2 CTAs running
GPGPU-Sim uArch: Shader 4 finished CTA #0 (44638,0), 2 CTAs running
GPGPU-Sim PTX: 34000000 instructions simulated : ctaid=(0,117,0) tid=(191,0,0)
GPGPU-Sim uArch: Shader 5 finished CTA #1 (44942,0), 1 CTAs running
GPGPU-Sim uArch: cycles simulated: 45000  inst.: 33120736 (ipc=736.0) sim_rate=501829 (inst/sec) elapsed = 0:0:01:06 / Thu Mar 12 18:56:13 2015
GPGPU-Sim PTX: 34100000 instructions simulated : ctaid=(0,119,0) tid=(95,0,0)
GPGPU-Sim uArch: Shader 2 finished CTA #1 (45119,0), 1 CTAs running
GPGPU-Sim uArch: Shader 4 finished CTA #1 (45138,0), 1 CTAs running
GPGPU-Sim uArch: Shader 11 finished CTA #1 (45186,0), 1 CTAs running
GPGPU-Sim PTX: 34200000 instructions simulated : ctaid=(0,114,0) tid=(31,0,0)
GPGPU-Sim uArch: Shader 7 finished CTA #1 (45403,0), 1 CTAs running
GPGPU-Sim uArch: Shader 14 finished CTA #1 (45425,0), 1 CTAs running
GPGPU-Sim PTX: 34300000 instructions simulated : ctaid=(0,127,0) tid=(95,0,0)
GPGPU-Sim uArch: Shader 3 finished CTA #1 (45863,0), 1 CTAs running
GPGPU-Sim uArch: Shader 10 finished CTA #1 (45907,0), 1 CTAs running
GPGPU-Sim PTX: 34400000 instructions simulated : ctaid=(0,120,0) tid=(255,0,0)
GPGPU-Sim uArch: cycles simulated: 46500  inst.: 33542208 (ipc=721.3) sim_rate=500629 (inst/sec) elapsed = 0:0:01:07 / Thu Mar 12 18:56:14 2015
GPGPU-Sim PTX: 34500000 instructions simulated : ctaid=(0,122,0) tid=(191,0,0)
GPGPU-Sim PTX: 34600000 instructions simulated : ctaid=(0,124,0) tid=(127,0,0)
GPGPU-Sim PTX: 34700000 instructions simulated : ctaid=(0,114,0) tid=(255,0,0)
GPGPU-Sim uArch: Shader 2 finished CTA #2 (47369,0), 0 CTAs running
GPGPU-Sim uArch: Shader 2 empty (release kernel 1 '_Z10testKernelPfS_S_jjjj').
GPGPU-Sim uArch: Shader 7 finished CTA #2 (47631,0), 0 CTAs running
GPGPU-Sim uArch: Shader 7 empty (release kernel 1 '_Z10testKernelPfS_S_jjjj').
GPGPU-Sim uArch: Shader 14 finished CTA #2 (47670,0), 0 CTAs running
GPGPU-Sim uArch: Shader 14 empty (release kernel 1 '_Z10testKernelPfS_S_jjjj').
GPGPU-Sim uArch: Shader 4 finished CTA #2 (47684,0), 0 CTAs running
GPGPU-Sim uArch: Shader 4 empty (release kernel 1 '_Z10testKernelPfS_S_jjjj').
GPGPU-Sim uArch: Shader 5 finished CTA #2 (47687,0), 0 CTAs running
GPGPU-Sim uArch: Shader 5 empty (release kernel 1 '_Z10testKernelPfS_S_jjjj').
GPGPU-Sim uArch: Shader 3 finished CTA #2 (47911,0), 0 CTAs running
GPGPU-Sim uArch: Shader 3 empty (release kernel 1 '_Z10testKernelPfS_S_jjjj').
GPGPU-Sim uArch: Shader 11 finished CTA #2 (47944,0), 0 CTAs running
GPGPU-Sim uArch: Shader 11 empty (release kernel 1 '_Z10testKernelPfS_S_jjjj').
GPGPU-Sim uArch: Shader 10 finished CTA #2 (47953,0), 0 CTAs running
GPGPU-Sim uArch: Shader 10 empty (release kernel 1 '_Z10testKernelPfS_S_jjjj').
GPGPU-Sim uArch: GPU detected kernel '_Z10testKernelPfS_S_jjjj' finished on shader 10.
kernel_name = _Z10testKernelPfS_S_jjjj 
kernel_launch_uid = 1 
gpu_sim_cycle = 47954
gpu_sim_insn = 33785856
gpu_ipc =     704.5472
gpu_tot_sim_cycle = 47954
gpu_tot_sim_insn = 33785856
gpu_tot_ipc =     704.5472
gpu_tot_issued_cta = 0
gpu_stall_dramfull = 1811
gpu_stall_icnt2sh    = 11839
gpu_total_sim_rate=504266

========= Core cache stats =========
L1I_cache:
	L1I_total_cache_accesses = 631335
	L1I_total_cache_misses = 3111
	L1I_total_cache_miss_rate = 0.0049
	L1I_total_cache_pending_hits = 0
	L1I_total_cache_reservation_fails = 15894
L1D_cache:
	L1D_cache_core[0]: Access = 720, Miss = 708, Miss_rate = 0.983, Pending_hits = 10, Reservation_fails = 520
	L1D_cache_core[1]: Access = 664, Miss = 652, Miss_rate = 0.982, Pending_hits = 10, Reservation_fails = 300
	L1D_cache_core[2]: Access = 770, Miss = 746, Miss_rate = 0.969, Pending_hits = 10, Reservation_fails = 333
	L1D_cache_core[3]: Access = 786, Miss = 772, Miss_rate = 0.982, Pending_hits = 10, Reservation_fails = 550
	L1D_cache_core[4]: Access = 802, Miss = 748, Miss_rate = 0.933, Pending_hits = 12, Reservation_fails = 350
	L1D_cache_core[5]: Access = 810, Miss = 764, Miss_rate = 0.943, Pending_hits = 10, Reservation_fails = 369
	L1D_cache_core[6]: Access = 720, Miss = 708, Miss_rate = 0.983, Pending_hits = 10, Reservation_fails = 693
	L1D_cache_core[7]: Access = 810, Miss = 796, Miss_rate = 0.983, Pending_hits = 10, Reservation_fails = 397
	L1D_cache_core[8]: Access = 720, Miss = 708, Miss_rate = 0.983, Pending_hits = 10, Reservation_fails = 361
	L1D_cache_core[9]: Access = 720, Miss = 708, Miss_rate = 0.983, Pending_hits = 10, Reservation_fails = 719
	L1D_cache_core[10]: Access = 810, Miss = 796, Miss_rate = 0.983, Pending_hits = 10, Reservation_fails = 614
	L1D_cache_core[11]: Access = 810, Miss = 756, Miss_rate = 0.933, Pending_hits = 10, Reservation_fails = 632
	L1D_cache_core[12]: Access = 720, Miss = 708, Miss_rate = 0.983, Pending_hits = 10, Reservation_fails = 464
	L1D_cache_core[13]: Access = 720, Miss = 708, Miss_rate = 0.983, Pending_hits = 10, Reservation_fails = 645
	L1D_cache_core[14]: Access = 810, Miss = 796, Miss_rate = 0.983, Pending_hits = 10, Reservation_fails = 438
	L1D_total_cache_accesses = 11392
	L1D_total_cache_misses = 11074
	L1D_total_cache_miss_rate = 0.9721
	L1D_total_cache_pending_hits = 152
	L1D_total_cache_reservation_fails = 7385
	L1D_cache_data_port_util = 0.000
	L1D_cache_fill_port_util = 0.013
L1C_cache:
	L1C_total_cache_accesses = 13440
	L1C_total_cache_misses = 90
	L1C_total_cache_miss_rate = 0.0067
	L1C_total_cache_pending_hits = 0
	L1C_total_cache_reservation_fails = 0
L1T_cache:
	L1T_total_cache_accesses = 0
	L1T_total_cache_misses = 0
	L1T_total_cache_pending_hits = 0
	L1T_total_cache_reservation_fails = 0

Total_core_cache_stats:
	Total_core_cache_stats_breakdown[GLOBAL_ACC_R][HIT] = 166
	Total_core_cache_stats_breakdown[GLOBAL_ACC_R][HIT_RESERVED] = 152
	Total_core_cache_stats_breakdown[GLOBAL_ACC_R][MISS] = 9026
	Total_core_cache_stats_breakdown[GLOBAL_ACC_R][RESERVATION_FAIL] = 7379
	Total_core_cache_stats_breakdown[CONST_ACC_R][HIT] = 13350
	Total_core_cache_stats_breakdown[CONST_ACC_R][MISS] = 90
	Total_core_cache_stats_breakdown[GLOBAL_ACC_W][MISS] = 2048
	Total_core_cache_stats_breakdown[GLOBAL_ACC_W][RESERVATION_FAIL] = 6
	Total_core_cache_stats_breakdown[INST_ACC_R][HIT] = 628224
	Total_core_cache_stats_breakdown[INST_ACC_R][MISS] = 3111
	Total_core_cache_stats_breakdown[INST_ACC_R][RESERVATION_FAIL] = 15894
Shader 0 warp_id issue ditsribution:
warp_id:
0, 1, 2, 3, 4, 5, 6, 7, 8, 9, 10, 11, 12, 13, 14, 15, 16, 17, 18, 19, 20, 21, 22, 23, 24, 25, 26, 27, 28, 29, 30, 31, 32, 33, 34, 35, 36, 37, 38, 39, 40, 41, 42, 43, 44, 45, 46, 47, 
distro:
[...]
gpgpu_stall_shd_mem[l_mem_st][mshr_rc] = 0
gpgpu_stall_shd_mem[l_mem_st][icnt_rc] = 0
gpgpu_stall_shd_mem[l_mem_ld][wb_icnt_rc] = 0
gpgpu_stall_shd_mem[l_mem_ld][wb_rsrv_fail] = 0
gpu_reg_bank_conflict_stalls = 0
Warp Occupancy Distribution:
Stall:84148	W0_Idle:71319	W0_Scoreboard:126825	W1:0	W2:0	W3:0	W4:0	W5:0	W6:0	W7:0	W8:896	W9:0	W10:0	W11:0	W12:0	W13:0	W14:0	W15:0	W16:0	W17:0	W18:0	W19:0	W20:0	W21:0	W22:0	W23:0	W24:0	W25:0	W26:0	W27:0	W28:0	W29:0	W30:0	W31:0	W32:1085568
traffic_breakdown_coretomem[CONST_ACC_R] = 120 {8:15,}
traffic_breakdown_coretomem[GLOBAL_ACC_R] = 72208 {8:9026,}
traffic_breakdown_coretomem[GLOBAL_ACC_W] = 278528 {136:2048,}
traffic_breakdown_coretomem[INST_ACC_R] = 960 {8:120,}
traffic_breakdown_memtocore[CONST_ACC_R] = 1080 {72:15,}
traffic_breakdown_memtocore[GLOBAL_ACC_R] = 1227536 {136:9026,}
traffic_breakdown_memtocore[GLOBAL_ACC_W] = 16384 {8:2048,}
traffic_breakdown_memtocore[INST_ACC_R] = 16320 {136:120,}
maxmrqlatency = 234 
maxdqlatency = 0 
maxmflatency = 673 
averagemflatency = 217 
max_icnt2mem_latency = 116 
max_icnt2sh_latency = 47953 
mrq_lat_table:2275 	717 	391 	633 	757 	631 	480 	271 	0 	0 	0 	0 	0 	0 	0 	0 	0 	0 	0 	0 	0 	0 	0 	0 	0 	0 	0 	0 	0 	0 	0 	0 	
dq_lat_table:0 	0 	0 	0 	0 	0 	0 	0 	0 	0 	0 	0 	0 	0 	0 	0 	0 	0 	0 	0 	0 	0 	0 	0 	0 	0 	0 	0 	0 	0 	0 	0 	
mf_lat_table:0 	0 	0 	0 	0 	0 	0 	7093 	3826 	170 	0 	0 	0 	0 	0 	0 	0 	0 	0 	0 	0 	0 	0 	0 	0 	0 	0 	0 	0 	0 	0 	0 	
icnt2mem_lat_table:0 	0 	0 	8751 	1561 	873 	24 	0 	0 	0 	0 	0 	0 	0 	0 	0 	0 	0 	0 	0 	0 	0 	0 	0 	
icnt2sh_lat_table:0 	0 	0 	2734 	3987 	2293 	27 	0 	0 	0 	0 	0 	0 	0 	1184 	864 	0 	0 	0 	0 	0 	0 	0 	0 	
mf_lat_pw_table:0 	0 	0 	0 	0 	0 	0 	71 	16 	0 	0 	0 	0 	0 	0 	0 	0 	0 	0 	0 	0 	0 	0 	0 	0 	0 	0 	0 	0 	0 	0 	0 	
maximum concurrent accesses to same row:
dram[0]:         1         0         0         0        10        10        32        32        32        32        32        32         0         0         0         0 
dram[1]:         2         0         0         0        10        10        32        32        32        32        32        32         0         0         0         0 
dram[2]:         2         0         0         0        10        12        32        32        32        32        32        32         0         0         0         0 
dram[3]:         4         0         0         0        10        12        32        32        32        32        32        32         0         0         0         0 
dram[4]:         0         0         0         0        10        12        32        32        32        32        32        32         0         0         0         0 
dram[5]:         0         0         0         0        10        12        32        32        32        32        32        32         0         0         0         0 
maximum service time to same row:
dram[0]:       519     26816     28760     28654     27377     27087     28750     28650     38404     38298     40233     40225      2976      2968     30497     30695 
dram[1]:     24835     26828     28882     28660     27022     27094     28634     28650     38480     38303     40340     40240      2979      2972     30563     30738 
dram[2]:     23750     26840     28890     28666     27025     27115     28624     28659     38490     38263     40344     40192      2982      3067     30579     30735 
dram[3]:     20700     26329     28897     28743     27025     27331     28635     28712     38495     38358     40359     40259      2985      3004     30596     30740 
dram[4]:     26419     26335     28902     28749     27031     27334     28650     28715     38481     38375     40334     40263      3313      2960     30629     30746 
dram[5]:     26802     26341     28643     28754     27086     27337     28645     28714     38293     38386     40223     40281      2967      2963     30662     30752 
average row accesses per activate:
dram[0]: 16.250000 64.000000 64.000000 64.000000 37.000000 37.000000 48.000000 48.000000 48.000000 48.000000 28.000000 26.000000 32.000000 32.000000 32.000000 32.000000 
dram[1]: 33.000000 64.000000 64.000000 64.000000 37.000000 37.000000 48.000000 48.000000 48.000000 48.000000 28.000000 26.000000 32.000000 32.000000 32.000000 32.000000 
dram[2]: 33.000000 64.000000 64.000000 64.000000 37.000000 38.000000 48.000000 48.000000 48.000000 48.000000 28.000000 26.000000 32.000000 32.000000 32.000000 32.000000 
dram[3]: 16.500000 64.000000 64.000000 64.000000 37.000000 38.000000 48.000000 48.000000 48.000000 48.000000 28.000000 26.000000 32.000000 32.000000 32.000000 32.000000 
dram[4]: 64.000000 64.000000 64.000000 64.000000 37.000000 38.000000 48.000000 48.000000 48.000000 48.000000 28.000000 26.000000 32.000000 32.000000 32.000000 32.000000 
dram[5]: 64.000000 64.000000 64.000000 64.000000 37.000000 38.000000 48.000000 48.000000 48.000000 48.000000 26.000000 26.000000 32.000000 32.000000 32.000000 32.000000 
average row locality = 6155/152 = 40.493421
number of total memory accesses made:
dram[0]:         0         0         0         0         0         0         0         0         0         0         0         0         0         0         0         0 
dram[1]:         0         0         0         0         0         0         0         0         0         0         0         0         0         0         0         0 
dram[2]:         0         0         0         0         0         0         0         0         0         0         0         0         0         0         0         0 
dram[3]:         0         0         0         0         0         0         0         0         0         0         0         0         0         0         0         0 
dram[4]:         0         0         0         0         0         0         0         0         0         0         0         0         0         0         0         0 
dram[5]:         0         0         0         0         0         0         0         0         0         0         0         0         0         0         0         0 
total accesses: 0
min_bank_accesses = 0!
min_chip_accesses = 0!
number of total read accesses:
dram[0]:        35        32        32        32        42        42        64        64        64        64        44        42        32        32        32        32 
dram[1]:        34        32        32        32        42        42        64        64        64        64        44        42        32        32        32        32 
dram[2]:        34        32        32        32        42        44        64        64        64        64        44        42        32        32        32        32 
dram[3]:        34        32        32        32        42        44        64        64        64        64        44        42        32        32        32        32 
dram[4]:        32        32        32        32        42        44        64        64        64        64        44        42        32        32        32        32 
dram[5]:        32        32        32        32        42        44        64        64        64        64        42        42        32        32        32        32 
total reads: 4107
bank skew: 64/32 = 2.00
chip skew: 686/682 = 1.01
number of total write accesses:
dram[0]:        30        32        32        32        32        32        32        32        32        32        12        10         0         0         0         0 
dram[1]:        32        32        32        32        32        32        32        32        32        32        12        10         0         0         0         0 
dram[2]:        32        32        32        32        32        32        32        32        32        32        12        10         0         0         0         0 
dram[3]:        32        32        32        32        32        32        32        32        32        32        12        10         0         0         0         0 
dram[4]:        32        32        32        32        32        32        32        32        32        32        12        10         0         0         0         0 
dram[5]:        32        32        32        32        32        32        32        32        32        32        10        10         0         0         0         0 
total reads: 2048
min_bank_accesses = 0!
chip skew: 342/340 = 1.01
average mf latency per bank:
dram[0]:        411       154       161       182       257       254       401       410       400       385       583       609       804       846       716       737
dram[1]:        138       165       172       197       253       259       413       420       418       404       631       632       821       871       723       735
dram[2]:        140       172       176       194       254       272       419       393       418       379       609       616       862       783       727       705
dram[3]:        144       146       176       151       260       264       429       400       424       388       614       639       837       820       732       717
dram[4]:        150       145       174       157       247       273       388       416       376       397       560       621       779       822       717       731
dram[5]:        153       147       178       160       248       267       413       408       396       402       647       606       829       816       732       729
maximum mf latency per bank:
dram[0]:        394       451       438       529       431       464       465       587       492       473       519       562       514       649       305       291
dram[1]:        325       536       503       557       521       545       564       544       576       548       673       601       515       658       284       308
dram[2]:        337       538       519       561       537       493       551       480       581       406       554       467       654       366       289       310
dram[3]:        379       376       507       407       475       409       592       533       590       454       658       589       640       616       288       299
dram[4]:        363       361       496       408       429       464       423       536       432       438       470       594       317       610       285       318
dram[5]:        453       377       502       451       446       434       601       520       560       544       670       560       671       572       289       319

Number of Memory Banks Accessed per Memory Operation per Warp (from 0):
0	0	0	0	0	0	0	0	0	0	0	0	0	0	0	0	0	0	0	0	0	0	0	0	0	0	0	0	0	0	0	0	0	0	0	0	0	0	0	0	0	0	0	0	0	0	0	0	0	0	0	0	0	0	0	0	0	0	0	0	0	0	0	0	0	0	0	0	0	0	0	0	0	0	0	0	0	0	0	0	0	0	0	0	0	0	0	0	0	0	0	0	0	0	0	0	
Average # of Memory Banks Accessed per Memory Operation per Warp=-nan

position of mrq chosen
0	0	0	0	0	0	0	0	0	0	0	0	0	0	0	0	

average position of mrq chosen = -nan
Memory Partition 0: 
Cache L2_bank_000:
MSHR contents

Cache L2_bank_001:
MSHR contents

In Dram Latency Queue (total = 0): 
DRAM[0]: 16 bks, busW=4 BL=8 CL=12, tRRD=2 tCCD=6, tRCD=12 tRAS=28 tRP=12 tRC=40
n_cmd=63298 n_nop=61210 n_act=27 n_pre=11 n_req=1025 n_rd=1370 n_write=680 bw_util=0.06477
n_activity=10768 dram_eff=0.3808
bk0: 70a 62215i bk1: 64a 62155i bk2: 64a 61978i bk3: 64a 61944i bk4: 84a 62012i bk5: 84a 62023i bk6: 128a 62026i bk7: 128a 61879i bk8: 128a 62134i bk9: 128a 62089i bk10: 88a 62351i bk11: 84a 62356i bk12: 64a 62678i bk13: 64a 62837i bk14: 64a 63045i bk15: 64a 63035i 
dram_util_bins: 0 0 0 0 0 0 0 0 0 0
dram_eff_bins: 0 0 0 0 0 0 0 0 0 0
mrqq: max=16 avg=0.497267
Memory Partition 1: 
Cache L2_bank_002:
MSHR contents

Cache L2_bank_003:
MSHR contents

In Dram Latency Queue (total = 0): 
DRAM[1]: 16 bks, busW=4 BL=8 CL=12, tRRD=2 tCCD=6, tRCD=12 tRAS=28 tRP=12 tRC=40
n_cmd=63298 n_nop=61212 n_act=25 n_pre=9 n_req=1026 n_rd=1368 n_write=684 bw_util=0.06484
n_activity=10765 dram_eff=0.3812
bk0: 68a 62074i bk1: 64a 62055i bk2: 64a 62005i bk3: 64a 61864i bk4: 84a 62053i bk5: 84a 61968i bk6: 128a 62053i bk7: 128a 61858i bk8: 128a 62184i bk9: 128a 61964i bk10: 88a 62295i bk11: 84a 62238i bk12: 64a 62819i bk13: 64a 62805i bk14: 64a 63021i bk15: 64a 63052i 
dram_util_bins: 0 0 0 0 0 0 0 0 0 0
dram_eff_bins: 0 0 0 0 0 0 0 0 0 0
mrqq: max=16 avg=0.572246
Memory Partition 2: 
Cache L2_bank_004:
MSHR contents

Cache L2_bank_005:
MSHR contents

In Dram Latency Queue (total = 0): 
DRAM[2]: 16 bks, busW=4 BL=8 CL=12, tRRD=2 tCCD=6, tRCD=12 tRAS=28 tRP=12 tRC=40
n_cmd=63298 n_nop=61208 n_act=25 n_pre=9 n_req=1028 n_rd=1372 n_write=684 bw_util=0.06496
n_activity=10745 dram_eff=0.3827
bk0: 68a 62140i bk1: 64a 62029i bk2: 64a 61988i bk3: 64a 61952i bk4: 84a 62039i bk5: 88a 61961i bk6: 128a 62054i bk7: 128a 61968i bk8: 128a 62217i bk9: 128a 62091i bk10: 88a 62472i bk11: 84a 62364i bk12: 64a 62704i bk13: 64a 63028i bk14: 64a 63100i bk15: 64a 63032i 
dram_util_bins: 0 0 0 0 0 0 0 0 0 0
dram_eff_bins: 0 0 0 0 0 0 0 0 0 0
mrqq: max=16 avg=0.528879
Memory Partition 3: 
Cache L2_bank_006:
MSHR contents

Cache L2_bank_007:
MSHR contents

In Dram Latency Queue (total = 0): 
DRAM[3]: 16 bks, busW=4 BL=8 CL=12, tRRD=2 tCCD=6, tRCD=12 tRAS=28 tRP=12 tRC=40
n_cmd=63298 n_nop=61204 n_act=27 n_pre=11 n_req=1028 n_rd=1372 n_write=684 bw_util=0.06496
n_activity=10819 dram_eff=0.3801
bk0: 68a 62076i bk1: 64a 62038i bk2: 64a 61872i bk3: 64a 61973i bk4: 84a 62055i bk5: 88a 61922i bk6: 128a 62084i bk7: 128a 61940i bk8: 128a 62175i bk9: 128a 61981i bk10: 88a 62429i bk11: 84a 62323i bk12: 64a 62836i bk13: 64a 62844i bk14: 64a 63059i bk15: 64a 63066i 
dram_util_bins: 0 0 0 0 0 0 0 0 0 0
dram_eff_bins: 0 0 0 0 0 0 0 0 0 0
mrqq: max=16 avg=0.449998
Memory Partition 4: 
Cache L2_bank_008:
MSHR contents

Cache L2_bank_009:
MSHR contents

In Dram Latency Queue (total = 0): 
DRAM[4]: 16 bks, busW=4 BL=8 CL=12, tRRD=2 tCCD=6, tRCD=12 tRAS=28 tRP=12 tRC=40
n_cmd=63298 n_nop=61214 n_act=24 n_pre=8 n_req=1026 n_rd=1368 n_write=684 bw_util=0.06484
n_activity=10727 dram_eff=0.3826
bk0: 64a 62139i bk1: 64a 62088i bk2: 64a 61969i bk3: 64a 61963i bk4: 84a 62005i bk5: 88a 61885i bk6: 128a 62114i bk7: 128a 61885i bk8: 128a 62192i bk9: 128a 62083i bk10: 88a 62526i bk11: 84a 62465i bk12: 64a 62991i bk13: 64a 62838i bk14: 64a 63042i bk15: 64a 63018i 
dram_util_bins: 0 0 0 0 0 0 0 0 0 0
dram_eff_bins: 0 0 0 0 0 0 0 0 0 0
mrqq: max=16 avg=0.42134
Memory Partition 5: 
Cache L2_bank_010:
MSHR contents

Cache L2_bank_011:
MSHR contents
MSHR: tag=0x8007d700, atomic=0 1 entries : 0xac886d58 :  mf: uid=681493, sid10:w20, part=5, addr=0x8007d700, load , size=128, unknown  status = IN_PARTITION_DRAM (47950), 

In Dram Latency Queue (total = 0): 
DRAM[5]: 16 bks, busW=4 BL=8 CL=12, tRRD=2 tCCD=6, tRCD=12 tRAS=28 tRP=12 tRC=40
n_cmd=63298 n_nop=61222 n_act=24 n_pre=8 n_req=1022 n_rd=1364 n_write=680 bw_util=0.06458
n_activity=10875 dram_eff=0.3759
bk0: 64a 62144i bk1: 64a 62198i bk2: 64a 61953i bk3: 64a 61949i bk4: 84a 61978i bk5: 88a 62009i bk6: 128a 62058i bk7: 128a 61939i bk8: 128a 62210i bk9: 128a 62079i bk10: 84a 62540i bk11: 84a 62447i bk12: 64a 62754i bk13: 64a 62858i bk14: 64a 63076i bk15: 64a 63035i 
dram_util_bins: 0 0 0 0 0 0 0 0 0 0
dram_eff_bins: 0 0 0 0 0 0 0 0 0 0
mrqq: max=16 avg=0.477472

========= L2 cache stats =========
L2_cache_bank[0]: Access = 1021, Miss = 345, Miss_rate = 0.338, Pending_hits = 15, Reservation_fails = 444
L2_cache_bank[1]: Access = 914, Miss = 340, Miss_rate = 0.372, Pending_hits = 0, Reservation_fails = 72
L2_cache_bank[2]: Access = 948, Miss = 344, Miss_rate = 0.363, Pending_hits = 6, Reservation_fails = 241
L2_cache_bank[3]: Access = 914, Miss = 340, Miss_rate = 0.372, Pending_hits = 0, Reservation_fails = 119
L2_cache_bank[4]: Access = 948, Miss = 344, Miss_rate = 0.363, Pending_hits = 6, Reservation_fails = 133
L2_cache_bank[5]: Access = 921, Miss = 342, Miss_rate = 0.371, Pending_hits = 0, Reservation_fails = 0
L2_cache_bank[6]: Access = 948, Miss = 344, Miss_rate = 0.363, Pending_hits = 3, Reservation_fails = 34
L2_cache_bank[7]: Access = 921, Miss = 342, Miss_rate = 0.371, Pending_hits = 0, Reservation_fails = 129
L2_cache_bank[8]: Access = 916, Miss = 342, Miss_rate = 0.373, Pending_hits = 0, Reservation_fails = 0
L2_cache_bank[9]: Access = 922, Miss = 342, Miss_rate = 0.371, Pending_hits = 0, Reservation_fails = 82
L2_cache_bank[10]: Access = 914, Miss = 340, Miss_rate = 0.372, Pending_hits = 0, Reservation_fails = 81
L2_cache_bank[11]: Access = 922, Miss = 342, Miss_rate = 0.371, Pending_hits = 0, Reservation_fails = 71
L2_total_cache_accesses = 11209
L2_total_cache_misses = 4107
L2_total_cache_miss_rate = 0.3664
L2_total_cache_pending_hits = 30
L2_total_cache_reservation_fails = 1406
L2_total_cache_breakdown:
	L2_cache_stats_breakdown[GLOBAL_ACC_R][HIT] = 6970
	L2_cache_stats_breakdown[GLOBAL_ACC_R][HIT_RESERVED] = 6
	L2_cache_stats_breakdown[GLOBAL_ACC_R][MISS] = 2050
	L2_cache_stats_breakdown[GLOBAL_ACC_R][RESERVATION_FAIL] = 799
	L2_cache_stats_breakdown[CONST_ACC_R][HIT] = 11
	L2_cache_stats_breakdown[CONST_ACC_R][HIT_RESERVED] = 3
	L2_cache_stats_breakdown[CONST_ACC_R][MISS] = 1
	L2_cache_stats_breakdown[CONST_ACC_R][RESERVATION_FAIL] = 108
	L2_cache_stats_breakdown[GLOBAL_ACC_W][MISS] = 2048
	L2_cache_stats_breakdown[INST_ACC_R][HIT] = 91
	L2_cache_stats_breakdown[INST_ACC_R][HIT_RESERVED] = 21
	L2_cache_stats_breakdown[INST_ACC_R][MISS] = 8
	L2_cache_stats_breakdown[INST_ACC_R][RESERVATION_FAIL] = 499
L2_cache_data_port_util = 0.049
L2_cache_fill_port_util = 0.029

icnt_total_pkts_mem_to_simt=47823
icnt_total_pkts_simt_to_mem=19401
LD_mem_lat_dist  0 0 0 0 0 0 0 0 0 0 0 0 0 0 0 0 0 0 0 0 0 0 0 0 0 0 0
ST_mem_lat_dist  0 0 0 0 0 0 0 0 0 0 0 0 0 0 0 0 0 0 0 0 0 0 0 0 0 0 0
----------------------------Interconnect-DETAILS--------------------------------
Class 0:
Packet latency average = 14.5103
	minimum = 6
	maximum = 75
Network latency average = 13.1015
	minimum = 6
	maximum = 70
Slowest packet = 14
Flit latency average = 12.6962
	minimum = 6
	maximum = 66
Slowest flit = 34847
Fragmentation average = 0
	minimum = 0
	maximum = 0
Injected packet rate average = 0.0173144
	minimum = 0.013784 (at node 1)
	maximum = 0.0212912 (at node 15)
Accepted packet rate average = 0.0173144
	minimum = 0.013784 (at node 1)
	maximum = 0.0212912 (at node 15)
Injected flit rate average = 0.0519201
	minimum = 0.0244609 (at node 1)
	maximum = 0.0916503 (at node 15)
Accepted flit rate average= 0.0519201
	minimum = 0.0332402 (at node 16)
	maximum = 0.0718814 (at node 7)
Injected packet length average = 2.99866
Accepted packet length average = 2.99866
Total in-flight flits = 0 (0 measured)
====== Overall Traffic Statistics ======
====== Traffic class 0 ======
Packet latency average = 14.5103 (1 samples)
	minimum = 6 (1 samples)
	maximum = 75 (1 samples)
Network latency average = 13.1015 (1 samples)
	minimum = 6 (1 samples)
	maximum = 70 (1 samples)
Flit latency average = 12.6962 (1 samples)
	minimum = 6 (1 samples)
	maximum = 66 (1 samples)
Fragmentation average = 0 (1 samples)
	minimum = 0 (1 samples)
	maximum = 0 (1 samples)
Injected packet rate average = 0.0173144 (1 samples)
	minimum = 0.013784 (1 samples)
	maximum = 0.0212912 (1 samples)
Accepted packet rate average = 0.0173144 (1 samples)
	minimum = 0.013784 (1 samples)
	maximum = 0.0212912 (1 samples)
Injected flit rate average = 0.0519201 (1 samples)
	minimum = 0.0244609 (1 samples)
	maximum = 0.0916503 (1 samples)
Accepted flit rate average = 0.0519201 (1 samples)
	minimum = 0.0332402 (1 samples)
	maximum = 0.0718814 (1 samples)
Injected packet size average = 2.99866 (1 samples)
Accepted packet size average = 2.99866 (1 samples)
Hops average = 1 (1 samples)
----------------------------END-of-Interconnect-DETAILS-------------------------


gpgpu_simulation_time = 0 days, 0 hrs, 1 min, 7 sec (67 sec)
gpgpu_simulation_rate = 504266 (inst/sec)
gpgpu_simulation_rate = 715 (cycle/sec)
Processing time: 66921.843750 (ms) -- do done kernel  
hello
Test PASSED

Press ENTER to exit...
